VHNQIURBCCNWDN-PPMNOVJINA-N
     RDKit          3D

  8  8  0  0  0  0  0  0  0  0999 V2000
   27.8596    4.5054   65.2336 N   0  0  0  0  0  0  0  0  0  0  0  0
   26.9889    4.1648   64.2481 C   0  0  0  0  0  0  0  0  0  0  0  0
   28.2707    5.7880   65.2533 C   0  0  0  0  0  0  0  0  0  0  0  0
   26.6031    2.9200   64.1916 N   0  0  0  0  0  0  0  0  0  0  0  0
   26.4904    5.0780   63.3099 C   0  0  0  0  0  0  0  0  0  0  0  0
   29.1569    6.0971   66.1392 N   0  0  0  0  0  0  0  0  0  0  0  0
   27.8180    6.7656   64.3438 C   0  0  0  0  0  0  0  0  0  0  0  0
   26.9137    6.3834   63.3764 C   0  0  0  0  0  0  0  0  0  0  0  0
  1  2  2  0
  1  3  1  0
  2  4  1  0
  2  5  1  0
  3  6  1  0
  3  7  2  0
  5  8  2  0
  7  8  1  0
M  END
>  <Molecule Name>  (1) 
VHNQIURBCCNWDN-PPMNOVJINA-N

>  <hs_clash>  (1) 
0.0

>  <hs_total>  (1) 
275.8073580037829

>  <Total Molweight>  (1) 
109.132

>  <cLogP>  (1) 
0.0069

>  <H-Acceptors>  (1) 
3

>  <H-Donors>  (1) 
2

>  <Polar Surface Area>  (1) 
64.93

>  <Non-H Atoms>  (1) 
8

>  <sp3-Atoms>  (1) 
0

$$$$
BAXOFTOLAUCFNW-BGGKNDAXNA-N
     RDKit          3D

  9 10  0  0  0  0  0  0  0  0999 V2000
   28.3485    4.1514   65.6550 N   0  0  0  0  0  0  0  0  0  0  0  0
   27.2924    3.5614   65.0350 N   0  0  0  0  0  0  0  0  0  0  0  0
   28.3685    5.4274   65.2470 C   0  0  0  0  0  0  0  0  0  0  0  0
   26.6313    4.4444   64.2202 C   0  0  0  0  0  0  0  0  0  0  0  0
   27.3133    5.6644   64.3322 C   0  0  0  0  0  0  0  0  0  0  0  0
   25.5293    4.3237   63.3834 C   0  0  0  0  0  0  0  0  0  0  0  0
   26.8482    6.7525   63.5974 C   0  0  0  0  0  0  0  0  0  0  0  0
   25.0871    5.4157   62.6635 C   0  0  0  0  0  0  0  0  0  0  0  0
   25.7461    6.6265   62.7705 C   0  0  0  0  0  0  0  0  0  0  0  0
  1  2  1  0
  1  3  2  0
  2  4  1  0
  3  5  1  0
  4  6  2  0
  5  7  2  0
  6  8  1  0
  7  9  1  0
  4  5  1  0
  8  9  2  0
M  END
>  <Molecule Name>  (2) 
BAXOFTOLAUCFNW-BGGKNDAXNA-N

>  <hs_clash>  (2) 
0.0

>  <hs_total>  (2) 
218.53814198278195

>  <Total Molweight>  (2) 
118.139

>  <cLogP>  (2) 
0.8701

>  <H-Acceptors>  (2) 
2

>  <H-Donors>  (2) 
1

>  <Polar Surface Area>  (2) 
28.68

>  <Non-H Atoms>  (2) 
9

>  <sp3-Atoms>  (2) 
0

$$$$
HFTLYNKTSANXFA-UHFFFAOYNA-N
     RDKit          3D

 16 17  0  0  0  0  0  0  0  0999 V2000
   26.5540    9.0924   62.4846 Cl  0  0  0  0  0  0  0  0  0  0  0  0
   27.1879    7.7411   63.3555 C   0  0  0  0  0  0  0  0  0  0  0  0
   26.5534    6.5851   63.1508 N   0  0  0  0  0  0  0  0  0  0  0  0
   28.2890    7.9080   64.1905 C   0  0  0  0  0  0  0  0  0  0  0  0
   26.9944    5.5129   63.8257 C   0  0  0  0  0  0  0  0  0  0  0  0
   28.7559    6.7889   64.8746 C   0  0  0  0  0  0  0  0  0  0  0  0
   28.0724    5.5921   64.6828 N   0  0  0  0  0  0  0  0  0  0  0  0
   26.5585    4.2077   63.8566 C   0  0  0  0  0  0  0  0  0  0  0  0
   29.8762    6.8549   65.7216 N   0  0  0  0  0  0  0  0  0  0  0  0
   28.3737    4.3695   65.2139 N   0  0  0  0  0  0  0  0  0  0  0  0
   25.4585    3.6981   63.1146 C   0  0  0  0  0  0  0  0  0  0  0  0
   27.4227    3.5274   64.7017 C   0  0  0  0  0  0  0  0  0  0  0  0
   30.6935    8.0622   65.8140 C   0  0  0  0  0  0  0  0  0  0  0  0
   24.5788    3.2890   62.5119 N   0  0  0  0  0  0  0  0  0  0  0  0
   31.5581    8.0178   67.0639 C   0  0  0  0  0  0  0  0  0  0  0  0
   31.5295    8.2219   64.5474 C   0  0  0  0  0  0  0  0  0  0  0  0
  1  2  1  0
  2  3  2  0
  2  4  1  0
  3  5  1  0
  4  6  2  0
  5  7  1  0
  5  8  2  0
  6  9  1  0
  7 10  1  0
  8 11  1  0
  8 12  1  0
  9 13  1  0
 11 14  3  0
 13 15  1  0
 13 16  1  0
  6  7  1  0
 10 12  2  0
M  END
>  <Molecule Name>  (3) 
HFTLYNKTSANXFA-UHFFFAOYNA-N

>  <hs_clash>  (3) 
0.0

>  <hs_total>  (3) 
208.15842080666766

>  <Total Molweight>  (3) 
235.677

>  <cLogP>  (3) 
0.8653

>  <H-Acceptors>  (3) 
5

>  <H-Donors>  (3) 
1

>  <Polar Surface Area>  (3) 
66.01

>  <Non-H Atoms>  (3) 
16

>  <sp3-Atoms>  (3) 
3

$$$$
LVNXHNRYPADEAD-UHFFFAOYNA-N
     RDKit          3D

 21 23  0  0  0  0  0  0  0  0999 V2000
   26.0236    8.7730   62.4437 Cl  0  0  0  0  0  0  0  0  0  0  0  0
   26.7022    7.6004   63.2004 C   0  0  0  0  0  0  0  0  0  0  0  0
   26.1884    6.3644   63.0787 N   0  0  0  0  0  0  0  0  0  0  0  0
   27.8624    7.7949   63.9621 C   0  0  0  0  0  0  0  0  0  0  0  0
   26.7522    5.3190   63.7749 C   0  0  0  0  0  0  0  0  0  0  0  0
   28.4708    6.6956   64.5794 C   0  0  0  0  0  0  0  0  0  0  0  0
   27.8728    5.4812   64.5036 N   0  0  0  0  0  0  0  0  0  0  0  0
   26.3788    3.9931   63.8316 C   0  0  0  0  0  0  0  0  0  0  0  0
   29.5905    6.8198   65.3294 N   0  0  0  0  0  0  0  0  0  0  0  0
   28.2525    4.3334   65.0177 N   0  0  0  0  0  0  0  0  0  0  0  0
   27.3581    3.3714   64.6168 C   0  0  0  0  0  0  0  0  0  0  0  0
   30.5298    7.8123   65.1805 C   0  0  0  0  0  0  0  0  0  0  0  0
   31.2672    8.2278   66.3323 C   0  0  0  0  0  0  0  0  0  0  0  0
   30.7887    8.3546   63.9070 C   0  0  0  0  0  0  0  0  0  0  0  0
   32.2508    9.1846   66.1734 C   0  0  0  0  0  0  0  0  0  0  0  0
   31.7692    9.3084   63.7343 C   0  0  0  0  0  0  0  0  0  0  0  0
   32.4547    9.7286   64.8889 C   0  0  0  0  0  0  0  0  0  0  0  0
   33.7060   10.9168   64.6892 S   0  0  0  0  0  0  0  0  0  0  0  0
   34.7866   10.3509   63.9183 O   0  0  0  0  0  0  0  0  0  0  0  0
   34.2099   11.3283   66.0165 O   0  0  0  0  0  0  0  0  0  0  0  0
   33.1146   12.4842   64.0254 C   0  0  0  0  0  0  0  0  0  0  0  0
  1  2  1  0
  2  3  2  0
  2  4  1  0
  3  5  1  0
  4  6  2  0
  5  7  1  0
  5  8  2  0
  6  9  1  0
  7 10  1  0
  8 11  1  0
  9 12  1  0
 12 13  2  0
 12 14  1  0
 13 15  1  0
 14 16  2  0
 15 17  2  0
 17 18  1  0
 18 19  2  0
 18 20  2  0
 18 21  1  0
  6  7  1  0
 10 11  2  0
 16 17  1  0
M  END
>  <Molecule Name>  (4) 
LVNXHNRYPADEAD-UHFFFAOYNA-N

>  <hs_clash>  (4) 
6.0

>  <hs_total>  (4) 
200.71067781799758

>  <Total Molweight>  (4) 
322.775

>  <cLogP>  (4) 
1.1495

>  <H-Acceptors>  (4) 
6

>  <H-Donors>  (4) 
1

>  <Polar Surface Area>  (4) 
84.74

>  <Non-H Atoms>  (4) 
21

>  <sp3-Atoms>  (4) 
2

$$$$
DWAAUQSYDGHPKE-YGPBECBDNA-N
     RDKit          3D

 17 18  0  0  0  0  0  0  0  0999 V2000
   28.4775    4.3109   65.9564 O   0  0  0  0  0  0  0  0  0  0  0  0
   27.6841    4.5360   65.0672 C   0  0  0  0  0  0  0  0  0  0  0  0
   26.8775    3.5094   64.6257 N   0  0  0  0  0  0  0  0  0  0  0  0
   27.5844    5.7952   64.4791 C   0  0  0  0  0  0  0  0  0  0  0  0
   28.7258    6.6748   64.3426 C   0  0  0  0  0  0  0  0  0  0  0  0
   26.3096    6.2287   63.9871 C   0  0  0  0  0  0  0  0  0  0  0  0
   29.8912    6.2932   64.7870 N   0  0  0  0  0  0  0  0  0  0  0  0
   28.5435    7.9633   63.7090 C   0  0  0  0  0  0  0  0  0  0  0  0
   26.1549    7.5021   63.3697 C   0  0  0  0  0  0  0  0  0  0  0  0
   31.1745    7.0124   64.5211 C   0  0  0  0  0  0  0  0  0  0  0  0
   27.2702    8.3678   63.2304 C   0  0  0  0  0  0  0  0  0  0  0  0
   31.4097    8.1148   65.5265 C   0  0  0  0  0  0  0  0  0  0  0  0
   31.2908    7.8970   66.9177 C   0  0  0  0  0  0  0  0  0  0  0  0
   31.7575    9.4173   65.0908 C   0  0  0  0  0  0  0  0  0  0  0  0
   31.4953    8.8866   67.8569 N   0  0  0  0  0  0  0  0  0  0  0  0
   31.9755   10.4549   66.0343 C   0  0  0  0  0  0  0  0  0  0  0  0
   31.8334   10.1408   67.4023 C   0  0  0  0  0  0  0  0  0  0  0  0
  1  2  2  0
  2  3  1  0
  2  4  1  0
  4  5  2  0
  4  6  1  0
  5  7  1  0
  5  8  1  0
  6  9  2  0
  7 10  1  0
  8 11  2  0
 10 12  1  0
 12 13  2  0
 12 14  1  0
 13 15  1  0
 14 16  2  0
 15 17  2  0
  9 11  1  0
 16 17  1  0
M  END
>  <Molecule Name>  (5) 
DWAAUQSYDGHPKE-YGPBECBDNA-N

>  <hs_clash>  (5) 
0.0

>  <hs_total>  (5) 
199.26533000704163

>  <Total Molweight>  (5) 
227.266

>  <cLogP>  (5) 
0.8111

>  <H-Acceptors>  (5) 
4

>  <H-Donors>  (5) 
2

>  <Polar Surface Area>  (5) 
68.01

>  <Non-H Atoms>  (5) 
17

>  <sp3-Atoms>  (5) 
1

$$$$
ZAIYYXVHGBMLEC-UHFFFAOYNA-N
     RDKit          3D

 24 27  0  0  0  0  0  0  0  0999 V2000
   26.5351    7.3314   60.0888 F   0  0  0  0  0  0  0  0  0  0  0  0
   26.4874    8.5756   60.7211 C   0  0  0  0  0  0  0  0  0  0  0  0
   26.8184    8.7466   62.0916 C   0  0  0  0  0  0  0  0  0  0  0  0
   26.1310    9.7127   59.9495 C   0  0  0  0  0  0  0  0  0  0  0  0
   27.1921    7.5985   62.9238 C   0  0  0  0  0  0  0  0  0  0  0  0
   26.7659   10.0439   62.6462 C   0  0  0  0  0  0  0  0  0  0  0  0
   26.0583   10.9740   60.5418 C   0  0  0  0  0  0  0  0  0  0  0  0
   26.4139    6.5280   62.8832 N   0  0  0  0  0  0  0  0  0  0  0  0
   28.4032    7.6802   63.6609 C   0  0  0  0  0  0  0  0  0  0  0  0
   26.3844   11.1543   61.8831 C   0  0  0  0  0  0  0  0  0  0  0  0
   26.8233    5.4820   63.6176 C   0  0  0  0  0  0  0  0  0  0  0  0
   28.7785    6.6062   64.4211 C   0  0  0  0  0  0  0  0  0  0  0  0
   27.9568    5.5347   64.4394 N   0  0  0  0  0  0  0  0  0  0  0  0
   26.2806    4.2072   63.8024 C   0  0  0  0  0  0  0  0  0  0  0  0
   29.9246    6.5020   65.1277 N   0  0  0  0  0  0  0  0  0  0  0  0
   28.1842    4.3668   65.0734 N   0  0  0  0  0  0  0  0  0  0  0  0
   27.1794    3.5528   64.6867 C   0  0  0  0  0  0  0  0  0  0  0  0
   31.0823    7.2790   64.7394 C   0  0  0  0  0  0  0  0  0  0  0  0
   31.3184    8.3907   65.6858 C   0  0  0  0  0  0  0  0  0  0  0  0
   31.2406    9.7095   65.2470 C   0  0  0  0  0  0  0  0  0  0  0  0
   31.5691    8.1321   67.0271 C   0  0  0  0  0  0  0  0  0  0  0  0
   31.4777   10.7412   66.1852 C   0  0  0  0  0  0  0  0  0  0  0  0
   31.8078    9.2159   67.8902 C   0  0  0  0  0  0  0  0  0  0  0  0
   31.7428   10.5064   67.4907 N   0  0  0  0  0  0  0  0  0  0  0  0
  1  2  1  0
  2  3  2  0
  2  4  1  0
  3  5  1  0
  3  6  1  0
  4  7  2  0
  5  8  2  0
  5  9  1  0
  6 10  2  0
  8 11  1  0
  9 12  2  0
 11 13  1  0
 11 14  2  0
 12 15  1  0
 13 16  1  0
 14 17  1  0
 15 18  1  0
 18 19  1  0
 19 20  2  0
 19 21  1  0
 20 22  1  0
 21 23  2  0
 22 24  2  0
  7 10  1  0
 12 13  1  0
 16 17  2  0
 23 24  1  0
M  END
>  <Molecule Name>  (6) 
ZAIYYXVHGBMLEC-UHFFFAOYNA-N

>  <hs_clash>  (6) 
0.0

>  <hs_total>  (6) 
195.0964930383749

>  <Total Molweight>  (6) 
319.342

>  <cLogP>  (6) 
1.8289

>  <H-Acceptors>  (6) 
5

>  <H-Donors>  (6) 
1

>  <Polar Surface Area>  (6) 
55.11

>  <Non-H Atoms>  (6) 
24

>  <sp3-Atoms>  (6) 
1

$$$$
HEWIOOOQJSCDJT-FJVOVDAXNA-N
     RDKit          3D

 29 31  0  0  0  0  0  0  0  0999 V2000
   23.4811    5.1158   60.9084 F   0  0  0  0  0  0  0  0  0  0  0  0
   24.2897    4.5276   61.7732 C   0  0  0  0  0  0  0  0  0  0  0  0
   25.3325    5.2919   62.3296 C   0  0  0  0  0  0  0  0  0  0  0  0
   24.1324    3.1887   62.1417 C   0  0  0  0  0  0  0  0  0  0  0  0
   26.2040    4.7100   63.2615 C   0  0  0  0  0  0  0  0  0  0  0  0
   25.0168    2.6136   63.0724 C   0  0  0  0  0  0  0  0  0  0  0  0
   26.0739    3.4040   63.6380 C   0  0  0  0  0  0  0  0  0  0  0  0
   27.3386    5.2680   63.9663 C   0  0  0  0  0  0  0  0  0  0  0  0
   27.1157    3.1310   64.5779 N   0  0  0  0  0  0  0  0  0  0  0  0
   27.8734    4.2536   64.7808 C   0  0  0  0  0  0  0  0  0  0  0  0
   27.7419    6.7398   63.7397 C   0  0  0  0  0  0  0  0  0  0  0  0
   28.9605    4.3462   65.6263 O   0  0  0  0  0  0  0  0  0  0  0  0
   29.0285    7.2754   64.3516 C   0  0  0  0  0  0  0  0  0  0  0  0
   29.7764    6.7523   65.4023 N   0  0  0  0  0  0  0  0  0  0  0  0
   29.6429    8.4584   63.9142 C   0  0  0  0  0  0  0  0  0  0  0  0
   30.8498    7.5771   65.6288 C   0  0  0  0  0  0  0  0  0  0  0  0
   30.7892    8.6578   64.6936 C   0  0  0  0  0  0  0  0  0  0  0  0
   29.1480    9.3382   62.7957 C   0  0  0  0  0  0  0  0  0  0  0  0
   31.9194    7.3524   66.7053 C   0  0  0  0  0  0  0  0  0  0  0  0
   31.7656    9.8529   64.5677 C   0  0  0  0  0  0  0  0  0  0  0  0
   33.0062    9.6683   64.6855 O   0  0  0  0  0  0  0  0  0  0  0  0
   31.2520   11.2025   64.3294 N   0  0  0  0  0  0  0  0  0  0  0  0
   32.1597   12.3006   64.2265 C   0  0  0  0  0  0  0  0  0  0  0  0
   31.9616   13.3483   63.1574 C   0  0  0  0  0  0  0  0  0  0  0  0
   31.7031   12.9273   61.7767 N   0  0  0  0  0  0  0  0  0  0  0  0
   32.7955   13.2775   60.9292 C   0  0  0  0  0  0  0  0  0  0  0  0
   30.4791   13.4928   61.2796 C   0  0  0  0  0  0  0  0  0  0  0  0
   32.9231   14.7370   60.4824 C   0  0  0  0  0  0  0  0  0  0  0  0
   29.7018   14.4392   62.1338 C   0  0  0  0  0  0  0  0  0  0  0  0
  1  2  1  0
  2  3  2  0
  2  4  1  0
  3  5  1  0
  4  6  2  0
  5  7  2  0
  5  8  1  0
  7  9  1  0
  8 10  2  0
  8 11  1  0
 10 12  1  0
 11 13  2  0
 13 14  1  0
 13 15  1  0
 14 16  1  0
 15 17  2  0
 15 18  1  0
 16 19  2  0
 17 20  1  0
 20 21  2  0
 20 22  1  0
 22 23  1  0
 23 24  1  0
 24 25  1  0
 25 26  1  0
 25 27  1  0
 26 28  1  0
 27 29  1  0
  6  7  1  0
  9 10  1  0
 16 17  1  0
M  CHG  2  12  -1  25   1
M  END
>  <Molecule Name>  (7) 
HEWIOOOQJSCDJT-FJVOVDAXNA-N

>  <hs_clash>  (7) 
47.0

>  <hs_total>  (7) 
194.76629821987012

>  <Total Molweight>  (7) 
398.480

>  <cLogP>  (7) 
-0.1372

>  <H-Acceptors>  (7) 
6

>  <H-Donors>  (7) 
4

>  <Polar Surface Area>  (7) 
84.42

>  <Non-H Atoms>  (7) 
29

>  <sp3-Atoms>  (7) 
10

$$$$
BLWZOYNPKKUDEW-IRWMESMANA-M
     RDKit          3D

 21 23  0  0  0  0  0  0  0  0999 V2000
   24.6847   11.2134   57.0707 O   0  0  0  0  0  0  0  0  0  0  0  0
   24.7540   10.6114   58.1458 C   0  0  0  0  0  0  0  0  0  0  0  0
   23.8376    9.8607   58.5242 O   0  0  0  0  0  0  0  0  0  0  0  0
   25.9647   10.8516   59.0036 C   0  0  0  0  0  0  0  0  0  0  0  0
   25.9563   10.3698   60.4338 C   0  0  0  0  0  0  0  0  0  0  0  0
   26.0404    9.0188   60.7050 C   0  0  0  0  0  0  0  0  0  0  0  0
   25.9443   11.2545   61.4816 C   0  0  0  0  0  0  0  0  0  0  0  0
   26.0937    8.5942   62.0145 C   0  0  0  0  0  0  0  0  0  0  0  0
   25.9885   10.8047   62.7812 C   0  0  0  0  0  0  0  0  0  0  0  0
   26.0295    7.2164   62.1605 O   0  0  0  0  0  0  0  0  0  0  0  0
   26.0853    9.4675   63.0615 C   0  0  0  0  0  0  0  0  0  0  0  0
   26.7539    6.5099   63.0805 C   0  0  0  0  0  0  0  0  0  0  0  0
   27.6743    7.0359   63.8826 N   0  0  0  0  0  0  0  0  0  0  0  0
   26.4405    5.1770   63.1568 C   0  0  0  0  0  0  0  0  0  0  0  0
   28.3136    6.2057   64.7501 C   0  0  0  0  0  0  0  0  0  0  0  0
   25.5947    4.3731   62.4427 N   0  0  0  0  0  0  0  0  0  0  0  0
   27.1562    4.4072   64.0934 C   0  0  0  0  0  0  0  0  0  0  0  0
   28.0937    4.8926   64.9148 N   0  0  0  0  0  0  0  0  0  0  0  0
   29.2409    6.7595   65.5499 N   0  0  0  0  0  0  0  0  0  0  0  0
   25.7419    3.1989   63.0008 C   0  0  0  0  0  0  0  0  0  0  0  0
   26.7058    3.1346   63.9679 N   0  0  0  0  0  0  0  0  0  0  0  0
  1  2  2  0
  2  3  1  0
  2  4  1  0
  4  5  1  0
  5  6  2  0
  5  7  1  0
  6  8  1  0
  7  9  2  0
  8 10  1  0
  8 11  2  0
 10 12  1  0
 12 13  2  0
 12 14  1  0
 13 15  1  0
 14 16  1  0
 14 17  2  0
 15 18  2  0
 15 19  1  0
 16 20  2  0
 17 21  1  0
  9 11  1  0
 17 18  1  0
 20 21  1  0
M  CHG  1   3  -1
M  END
>  <Molecule Name>  (8) 
BLWZOYNPKKUDEW-IRWMESMANA-M

>  <hs_clash>  (8) 
0.0

>  <hs_total>  (8) 
190.04514271221143

>  <Total Molweight>  (8) 
284.254

>  <cLogP>  (8) 
-1.3451

>  <H-Acceptors>  (8) 
8

>  <H-Donors>  (8) 
2

>  <Polar Surface Area>  (8) 
129.84

>  <Non-H Atoms>  (8) 
21

>  <sp3-Atoms>  (8) 
3

$$$$
OPRAIFVPXXVXDL-LNNLXFCONA-N
     RDKit          3D

 30 33  0  0  0  0  0  0  0  0999 V2000
   26.2297   11.0161   63.6891 Cl  0  0  0  0  0  0  0  0  0  0  0  0
   26.2702   10.3715   62.0996 C   0  0  0  0  0  0  0  0  0  0  0  0
   26.4755    9.0034   61.8437 C   0  0  0  0  0  0  0  0  0  0  0  0
   26.0975   11.3152   61.0740 C   0  0  0  0  0  0  0  0  0  0  0  0
   26.5639    7.9623   62.8307 N   0  0  0  0  0  0  0  0  0  0  0  0
   26.5099    8.6322   60.5079 C   0  0  0  0  0  0  0  0  0  0  0  0
   26.1147   10.9362   59.7352 C   0  0  0  0  0  0  0  0  0  0  0  0
   25.6196    6.9766   63.0277 N   0  0  0  0  0  0  0  0  0  0  0  0
   27.6770    7.6990   63.6250 C   0  0  0  0  0  0  0  0  0  0  0  0
   26.8818    6.9614   60.1628 Cl  0  0  0  0  0  0  0  0  0  0  0  0
   26.3310    9.5708   59.4611 C   0  0  0  0  0  0  0  0  0  0  0  0
   25.8030   12.1598   58.4629 Cl  0  0  0  0  0  0  0  0  0  0  0  0
   26.1290    6.0894   63.9110 C   0  0  0  0  0  0  0  0  0  0  0  0
   28.8342    8.3960   63.7367 N   0  0  0  0  0  0  0  0  0  0  0  0
   27.4753    6.4818   64.3289 C   0  0  0  0  0  0  0  0  0  0  0  0
   25.2951    4.8833   64.2285 C   0  0  0  0  0  0  0  0  0  0  0  0
   29.7858    7.8830   64.5439 C   0  0  0  0  0  0  0  0  0  0  0  0
   28.4946    6.0080   65.1399 C   0  0  0  0  0  0  0  0  0  0  0  0
   25.6555    3.7144   63.3141 C   0  0  0  0  0  0  0  0  0  0  0  0
   29.6609    6.7097   65.2336 N   0  0  0  0  0  0  0  0  0  0  0  0
   31.0943    8.6625   64.6191 C   0  0  0  0  0  0  0  0  0  0  0  0
   28.3415    4.9273   65.7160 O   0  0  0  0  0  0  0  0  0  0  0  0
   31.2788    9.4782   65.8894 C   0  0  0  0  0  0  0  0  0  0  0  0
   30.9410   10.8539   65.9377 C   0  0  0  0  0  0  0  0  0  0  0  0
   31.7725    8.8305   67.0347 C   0  0  0  0  0  0  0  0  0  0  0  0
   31.0711   11.5528   67.1735 C   0  0  0  0  0  0  0  0  0  0  0  0
   31.9005    9.5181   68.2538 C   0  0  0  0  0  0  0  0  0  0  0  0
   30.7171   12.8930   67.3072 O   0  0  0  0  0  0  0  0  0  0  0  0
   31.5303   10.8805   68.3190 C   0  0  0  0  0  0  0  0  0  0  0  0
   31.5613   11.5504   69.5357 O   0  0  0  0  0  0  0  0  0  0  0  0
  1  2  1  0
  2  3  2  0
  2  4  1  0
  3  5  1  0
  3  6  1  0
  4  7  2  0
  5  8  1  0
  5  9  1  0
  6 10  1  0
  6 11  2  0
  7 12  1  0
  8 13  2  0
  9 14  1  0
  9 15  2  0
 13 16  1  0
 14 17  2  0
 15 18  1  0
 16 19  1  0
 17 20  1  0
 17 21  1  0
 18 22  2  0
 21 23  1  0
 23 24  2  0
 23 25  1  0
 24 26  1  0
 25 27  2  0
 26 28  1  0
 26 29  2  0
 29 30  1  0
  7 11  1  0
 13 15  1  0
 18 20  1  0
 27 29  1  0
M  END
>  <Molecule Name>  (9) 
OPRAIFVPXXVXDL-LNNLXFCONA-N

>  <hs_clash>  (9) 
0.0

>  <hs_total>  (9) 
186.94580813240862

>  <Total Molweight>  (9) 
465.723

>  <cLogP>  (9) 
3.6912

>  <H-Acceptors>  (9) 
7

>  <H-Donors>  (9) 
3

>  <Polar Surface Area>  (9) 
99.74

>  <Non-H Atoms>  (9) 
30

>  <sp3-Atoms>  (9) 
5

$$$$
XIKUCJUOFVMZHJ-NMRHLHPGNA-M
     RDKit          3D

 20 22  0  0  0  0  0  0  0  0999 V2000
   24.7426    9.8452   57.1614 O   0  0  0  0  0  0  0  0  0  0  0  0
   24.6403    9.7237   58.3594 C   0  0  0  0  0  0  0  0  0  0  0  0
   23.6108   10.0689   59.0029 O   0  0  0  0  0  0  0  0  0  0  0  0
   25.6722    8.8465   59.0803 C   0  0  0  0  0  0  0  0  0  0  0  0
   25.9334    9.0443   60.5678 C   0  0  0  0  0  0  0  0  0  0  0  0
   26.4058    7.9840   61.3039 C   0  0  0  0  0  0  0  0  0  0  0  0
   25.8961   10.2876   61.1873 C   0  0  0  0  0  0  0  0  0  0  0  0
   26.7168    8.0922   62.6570 C   0  0  0  0  0  0  0  0  0  0  0  0
   26.1461   10.4326   62.5425 C   0  0  0  0  0  0  0  0  0  0  0  0
   27.1826    6.9025   63.4016 C   0  0  0  0  0  0  0  0  0  0  0  0
   26.5843    9.3351   63.2737 C   0  0  0  0  0  0  0  0  0  0  0  0
   28.0839    7.1927   64.3537 N   0  0  0  0  0  0  0  0  0  0  0  0
   26.7776    5.5575   63.2741 C   0  0  0  0  0  0  0  0  0  0  0  0
   28.6150    6.2068   65.1102 C   0  0  0  0  0  0  0  0  0  0  0  0
   25.8611    4.9075   62.4574 N   0  0  0  0  0  0  0  0  0  0  0  0
   27.3787    4.6168   64.1191 C   0  0  0  0  0  0  0  0  0  0  0  0
   28.3018    4.8899   65.0414 N   0  0  0  0  0  0  0  0  0  0  0  0
   29.5019    6.6082   66.0326 N   0  0  0  0  0  0  0  0  0  0  0  0
   25.9105    3.6516   62.8446 C   0  0  0  0  0  0  0  0  0  0  0  0
   26.8222    3.4110   63.8285 N   0  0  0  0  0  0  0  0  0  0  0  0
  1  2  2  0
  2  3  1  0
  2  4  1  0
  4  5  1  0
  5  6  2  0
  5  7  1  0
  6  8  1  0
  7  9  2  0
  8 10  1  0
  8 11  2  0
 10 12  2  0
 10 13  1  0
 12 14  1  0
 13 15  1  0
 13 16  2  0
 14 17  2  0
 14 18  1  0
 15 19  2  0
 16 20  1  0
  9 11  1  0
 16 17  1  0
 19 20  1  0
M  CHG  1   3  -1
M  END
>  <Molecule Name>  (10) 
XIKUCJUOFVMZHJ-NMRHLHPGNA-M

>  <hs_clash>  (10) 
0.0

>  <hs_total>  (10) 
185.62225981696895

>  <Total Molweight>  (10) 
268.255

>  <cLogP>  (10) 
-1.3419

>  <H-Acceptors>  (10) 
7

>  <H-Donors>  (10) 
2

>  <Polar Surface Area>  (10) 
120.61

>  <Non-H Atoms>  (10) 
20

>  <sp3-Atoms>  (10) 
2

$$$$
MNHPHKFLWAPNOV-KQEHPHAYNA-N
     RDKit          3D

 22 24  0  0  0  0  0  0  0  0999 V2000
   33.6128   10.9406   64.7996 S   0  0  0  0  0  0  0  0  0  0  0  0
   34.5668   10.4517   63.8596 O   0  0  0  0  0  0  0  0  0  0  0  0
   34.0645   11.2931   66.1243 O   0  0  0  0  0  0  0  0  0  0  0  0
   32.9238   12.2454   64.1642 N   0  0  0  0  0  0  0  0  0  0  0  0
   32.3947    9.6864   64.9703 C   0  0  0  0  0  0  0  0  0  0  0  0
   31.5901    9.3658   63.8911 C   0  0  0  0  0  0  0  0  0  0  0  0
   32.2695    8.9960   66.1632 C   0  0  0  0  0  0  0  0  0  0  0  0
   30.6559    8.3624   64.0068 C   0  0  0  0  0  0  0  0  0  0  0  0
   31.3342    7.9826   66.2751 C   0  0  0  0  0  0  0  0  0  0  0  0
   30.5316    7.6529   65.2011 C   0  0  0  0  0  0  0  0  0  0  0  0
   29.5792    6.6306   65.3081 N   0  0  0  0  0  0  0  0  0  0  0  0
   28.3876    6.7144   64.7252 C   0  0  0  0  0  0  0  0  0  0  0  0
   27.9277    7.7844   64.2971 O   0  0  0  0  0  0  0  0  0  0  0  0
   27.6698    5.4501   64.5535 C   0  0  0  0  0  0  0  0  0  0  0  0
   28.1191    4.3379   65.1496 N   0  0  0  0  0  0  0  0  0  0  0  0
   26.5620    5.1761   63.7583 C   0  0  0  0  0  0  0  0  0  0  0  0
   27.2901    3.3440   64.7475 N   0  0  0  0  0  0  0  0  0  0  0  0
   26.3267    3.8070   63.8927 C   0  0  0  0  0  0  0  0  0  0  0  0
   25.7502    5.9330   62.9165 C   0  0  0  0  0  0  0  0  0  0  0  0
   25.2679    3.2172   63.2168 C   0  0  0  0  0  0  0  0  0  0  0  0
   24.6874    5.3386   62.2588 C   0  0  0  0  0  0  0  0  0  0  0  0
   24.4453    3.9829   62.4121 C   0  0  0  0  0  0  0  0  0  0  0  0
  1  2  2  0
  1  3  2  0
  1  4  1  0
  1  5  1  0
  5  6  2  0
  5  7  1  0
  6  8  1  0
  7  9  2  0
  8 10  2  0
 10 11  1  0
 11 12  1  0
 12 13  2  0
 12 14  1  0
 14 15  2  0
 14 16  1  0
 15 17  1  0
 16 18  2  0
 16 19  1  0
 18 20  1  0
 19 21  2  0
 20 22  2  0
  9 10  1  0
 17 18  1  0
 21 22  1  0
M  END
>  <Molecule Name>  (11) 
MNHPHKFLWAPNOV-KQEHPHAYNA-N

>  <hs_clash>  (11) 
3.0

>  <hs_total>  (11) 
180.818164840008

>  <Total Molweight>  (11) 
316.340

>  <cLogP>  (11) 
0.8356

>  <H-Acceptors>  (11) 
7

>  <H-Donors>  (11) 
3

>  <Polar Surface Area>  (11) 
126.32

>  <Non-H Atoms>  (11) 
22

>  <sp3-Atoms>  (11) 
1

$$$$
ZPRDUVXWJHLAHX-XZUJVXCPNA-M
     RDKit          3D

 18 19  0  0  0  0  0  0  0  0999 V2000
   30.0640    8.1673   64.9899 O   0  0  0  0  0  0  0  0  0  0  0  0
   29.1455    7.3969   64.6647 C   0  0  0  0  0  0  0  0  0  0  0  0
   28.1583    7.7685   63.8111 N   0  0  0  0  0  0  0  0  0  0  0  0
   29.0750    6.1617   65.3109 N   0  0  0  0  0  0  0  0  0  0  0  0
   27.1432    6.8956   63.5026 C   0  0  0  0  0  0  0  0  0  0  0  0
   28.1879    9.0352   63.2429 C   0  0  0  0  0  0  0  0  0  0  0  0
   28.1324    5.2257   64.9967 C   0  0  0  0  0  0  0  0  0  0  0  0
   26.2208    7.3004   62.7528 O   0  0  0  0  0  0  0  0  0  0  0  0
   26.9770    5.6221   64.2322 C   0  0  0  0  0  0  0  0  0  0  0  0
   29.0022    9.2264   62.1153 C   0  0  0  0  0  0  0  0  0  0  0  0
   27.4313   10.1358   63.7361 C   0  0  0  0  0  0  0  0  0  0  0  0
   28.2038    4.1714   65.6249 O   0  0  0  0  0  0  0  0  0  0  0  0
   26.2146    4.5991   63.5551 C   0  0  0  0  0  0  0  0  0  0  0  0
   29.0753   10.4558   61.4680 C   0  0  0  0  0  0  0  0  0  0  0  0
   27.5110   11.3853   63.0953 C   0  0  0  0  0  0  0  0  0  0  0  0
   25.4694    4.8473   62.5499 O   0  0  0  0  0  0  0  0  0  0  0  0
   26.2638    3.3850   64.1975 N   0  0  0  0  0  0  0  0  0  0  0  0
   28.3321   11.5429   61.9638 C   0  0  0  0  0  0  0  0  0  0  0  0
  1  2  2  0
  2  3  1  0
  2  4  1  0
  3  5  1  0
  3  6  1  0
  4  7  1  0
  5  8  1  0
  5  9  2  0
  6 10  2  0
  6 11  1  0
  7 12  2  0
  9 13  1  0
 10 14  1  0
 11 15  2  0
 13 16  2  0
 13 17  1  0
 14 18  2  0
  7  9  1  0
 15 18  1  0
M  CHG  1   8  -1
M  END
>  <Molecule Name>  (12) 
ZPRDUVXWJHLAHX-XZUJVXCPNA-M

>  <hs_clash>  (12) 
0.0

>  <hs_total>  (12) 
179.3581970800249

>  <Total Molweight>  (12) 
246.202

>  <cLogP>  (12) 
-2.4129

>  <H-Acceptors>  (12) 
7

>  <H-Donors>  (12) 
2

>  <Polar Surface Area>  (12) 
115.56

>  <Non-H Atoms>  (12) 
18

>  <sp3-Atoms>  (12) 
1

$$$$
CQYPNVKLVHHOSJ-HDAMEQSMNA-N
     RDKit          3D

 11 12  0  0  0  0  0  0  0  0999 V2000
   26.4520    7.9301   61.7984 I   0  0  0  0  0  0  0  0  0  0  0  0
   27.1770    6.5999   63.2351 C   0  0  0  0  0  0  0  0  0  0  0  0
   28.1149    7.0131   64.0841 N   0  0  0  0  0  0  0  0  0  0  0  0
   26.7635    5.2967   63.2608 C   0  0  0  0  0  0  0  0  0  0  0  0
   28.6612    6.0944   64.9424 C   0  0  0  0  0  0  0  0  0  0  0  0
   25.7980    4.6074   62.5357 N   0  0  0  0  0  0  0  0  0  0  0  0
   27.3629    4.4346   64.1939 C   0  0  0  0  0  0  0  0  0  0  0  0
   28.3597    4.7777   65.0396 N   0  0  0  0  0  0  0  0  0  0  0  0
   29.5794    6.5273   65.8260 N   0  0  0  0  0  0  0  0  0  0  0  0
   25.8524    3.3823   63.0310 C   0  0  0  0  0  0  0  0  0  0  0  0
   26.7989    3.2085   64.0102 N   0  0  0  0  0  0  0  0  0  0  0  0
  1  2  1  0
  2  3  2  0
  2  4  1  0
  3  5  1  0
  4  6  1  0
  4  7  2  0
  5  8  2  0
  5  9  1  0
  6 10  2  0
  7 11  1  0
  7  8  1  0
 10 11  1  0
M  END
>  <Molecule Name>  (13) 
CQYPNVKLVHHOSJ-HDAMEQSMNA-N

>  <hs_clash>  (13) 
0.0

>  <hs_total>  (13) 
178.50415047472612

>  <Total Molweight>  (13) 
261.022

>  <cLogP>  (13) 
0.2056

>  <H-Acceptors>  (13) 
5

>  <H-Donors>  (13) 
2

>  <Polar Surface Area>  (13) 
80.48

>  <Non-H Atoms>  (13) 
11

>  <sp3-Atoms>  (13) 
0

$$$$
DXUJQXZHHGJMFM-UHFFFAOYNA-N
     RDKit          3D

 26 29  0  0  0  0  0  0  0  0999 V2000
   24.9499    3.4620   62.9575 Br  0  0  0  0  0  0  0  0  0  0  0  0
   26.4109    4.2410   63.8377 C   0  0  0  0  0  0  0  0  0  0  0  0
   26.8450    5.5447   63.7433 C   0  0  0  0  0  0  0  0  0  0  0  0
   27.3376    3.5823   64.6846 C   0  0  0  0  0  0  0  0  0  0  0  0
   26.3306    6.6024   63.0211 N   0  0  0  0  0  0  0  0  0  0  0  0
   27.9564    5.6225   64.4762 N   0  0  0  0  0  0  0  0  0  0  0  0
   28.2709    4.4320   65.0846 N   0  0  0  0  0  0  0  0  0  0  0  0
   27.0378    7.7039   63.0698 C   0  0  0  0  0  0  0  0  0  0  0  0
   28.7451    6.7112   64.4502 C   0  0  0  0  0  0  0  0  0  0  0  0
   26.5570    8.8700   62.3345 C   0  0  0  0  0  0  0  0  0  0  0  0
   28.2747    7.7779   63.7331 C   0  0  0  0  0  0  0  0  0  0  0  0
   29.9498    6.6119   65.1041 N   0  0  0  0  0  0  0  0  0  0  0  0
   26.2698    8.8048   60.9494 C   0  0  0  0  0  0  0  0  0  0  0  0
   26.3963   10.0759   63.0321 C   0  0  0  0  0  0  0  0  0  0  0  0
   31.0555    7.5750   64.7788 C   0  0  0  0  0  0  0  0  0  0  0  0
   25.8187    9.9714   60.2984 C   0  0  0  0  0  0  0  0  0  0  0  0
   26.4111    7.5249   60.1514 C   0  0  0  0  0  0  0  0  0  0  0  0
   25.9403   11.2175   62.3629 C   0  0  0  0  0  0  0  0  0  0  0  0
   31.2161    8.5899   65.9119 C   0  0  0  0  0  0  0  0  0  0  0  0
   25.6900   11.1513   60.9941 C   0  0  0  0  0  0  0  0  0  0  0  0
   31.2453    8.2028   67.2261 C   0  0  0  0  0  0  0  0  0  0  0  0
   31.3349    9.9937   65.6198 C   0  0  0  0  0  0  0  0  0  0  0  0
   31.3723    9.1396   68.3433 N   0  0  0  0  0  0  0  0  0  0  0  0
   31.4593   10.9540   66.6652 C   0  0  0  0  0  0  0  0  0  0  0  0
   31.3298    8.7337   69.6019 O   0  0  0  0  0  0  0  0  0  0  0  0
   31.4795   10.5471   67.9770 C   0  0  0  0  0  0  0  0  0  0  0  0
  1  2  1  0
  2  3  2  0
  2  4  1  0
  3  5  1  0
  3  6  1  0
  4  7  2  0
  5  8  2  0
  6  9  1  0
  8 10  1  0
  8 11  1  0
  9 12  1  0
 10 13  2  0
 10 14  1  0
 12 15  1  0
 13 16  1  0
 13 17  1  0
 14 18  2  0
 15 19  1  0
 16 20  2  0
 19 21  2  0
 19 22  1  0
 21 23  1  0
 22 24  2  0
 23 25  1  0
 23 26  2  0
  6  7  1  0
  9 11  2  0
 18 20  1  0
 24 26  1  0
M  CHG  2  23   1  25  -1
M  END
>  <Molecule Name>  (14) 
DXUJQXZHHGJMFM-UHFFFAOYNA-N

>  <hs_clash>  (14) 
0.0

>  <hs_total>  (14) 
173.78642214170702

>  <Total Molweight>  (14) 
410.274

>  <cLogP>  (14) 
2.1513

>  <H-Acceptors>  (14) 
6

>  <H-Donors>  (14) 
1

>  <Polar Surface Area>  (14) 
67.68

>  <Non-H Atoms>  (14) 
26

>  <sp3-Atoms>  (14) 
3

$$$$
ZKBQDFAWXLTYKS-BGGKNDAXNA-N
     RDKit          3D

 10 11  0  0  0  0  0  0  0  0999 V2000
   26.7791    8.0591   63.5235 Cl  0  0  0  0  0  0  0  0  0  0  0  0
   27.3731    6.7067   64.3135 C   0  0  0  0  0  0  0  0  0  0  0  0
   28.3797    6.9591   65.1704 N   0  0  0  0  0  0  0  0  0  0  0  0
   26.8550    5.4749   64.0968 C   0  0  0  0  0  0  0  0  0  0  0  0
   28.9311    5.8803   65.8570 C   0  0  0  0  0  0  0  0  0  0  0  0
   25.8571    4.9985   63.3329 N   0  0  0  0  0  0  0  0  0  0  0  0
   27.3345    4.4364   64.8006 C   0  0  0  0  0  0  0  0  0  0  0  0
   28.3370    4.6278   65.6452 N   0  0  0  0  0  0  0  0  0  0  0  0
   25.7371    3.6788   63.5351 C   0  0  0  0  0  0  0  0  0  0  0  0
   26.6889    3.3314   64.4360 N   0  0  0  0  0  0  0  0  0  0  0  0
  1  2  1  0
  2  3  2  0
  2  4  1  0
  3  5  1  0
  4  6  1  0
  4  7  2  0
  5  8  2  0
  6  9  2  0
  7 10  1  0
  7  8  1  0
  9 10  1  0
M  END
>  <Molecule Name>  (15) 
ZKBQDFAWXLTYKS-BGGKNDAXNA-N

>  <hs_clash>  (15) 
0.0

>  <hs_total>  (15) 
173.78037592193368

>  <Total Molweight>  (15) 
154.560

>  <cLogP>  (15) 
0.6823

>  <H-Acceptors>  (15) 
4

>  <H-Donors>  (15) 
1

>  <Polar Surface Area>  (15) 
54.46

>  <Non-H Atoms>  (15) 
10

>  <sp3-Atoms>  (15) 
0

$$$$
JABXNQUXGJTKRO-MZSCVVMKNA-N
     RDKit          3D

 21 23  0  0  0  0  0  0  0  0999 V2000
   26.3274    7.3969   62.7650 O   0  0  0  0  0  0  0  0  0  0  0  0
   26.9869    6.5185   63.5854 C   0  0  0  0  0  0  0  0  0  0  0  0
   26.2946    8.8094   62.9615 C   0  0  0  0  0  0  0  0  0  0  0  0
   26.4850    5.2547   63.6257 N   0  0  0  0  0  0  0  0  0  0  0  0
   28.0982    6.8261   64.3221 C   0  0  0  0  0  0  0  0  0  0  0  0
   26.3818    9.4833   61.5975 C   0  0  0  0  0  0  0  0  0  0  0  0
   27.0493    4.2920   64.3958 C   0  0  0  0  0  0  0  0  0  0  0  0
   28.8887    7.9514   64.5396 N   0  0  0  0  0  0  0  0  0  0  0  0
   28.6774    5.7729   65.1335 C   0  0  0  0  0  0  0  0  0  0  0  0
   25.7799   10.8854   61.6103 C   0  0  0  0  0  0  0  0  0  0  0  0
   25.7495    8.6341   60.4900 C   0  0  0  0  0  0  0  0  0  0  0  0
   28.1555    4.5337   65.1585 N   0  0  0  0  0  0  0  0  0  0  0  0
   26.4765    3.0794   64.3558 N   0  0  0  0  0  0  0  0  0  0  0  0
   29.8548    7.5354   65.4469 C   0  0  0  0  0  0  0  0  0  0  0  0
   29.7300    6.2048   65.8018 N   0  0  0  0  0  0  0  0  0  0  0  0
   25.9900   11.5680   60.2512 C   0  0  0  0  0  0  0  0  0  0  0  0
   25.9385    9.2946   59.1242 C   0  0  0  0  0  0  0  0  0  0  0  0
   30.9399    8.4548   65.9257 C   0  0  0  0  0  0  0  0  0  0  0  0
   25.4196   10.7331   59.0985 C   0  0  0  0  0  0  0  0  0  0  0  0
   32.1237    8.2793   64.9910 C   0  0  0  0  0  0  0  0  0  0  0  0
   31.4188    8.1953   67.3416 C   0  0  0  0  0  0  0  0  0  0  0  0
  1  2  1  0
  1  3  1  0
  2  4  2  0
  2  5  1  0
  3  6  1  0
  4  7  1  0
  5  8  1  0
  5  9  2  0
  6 10  1  0
  6 11  1  0
  7 12  2  0
  7 13  1  0
  8 14  2  0
  9 15  1  0
 10 16  1  0
 11 17  1  0
 14 18  1  0
 16 19  1  0
 18 20  1  0
 18 21  1  0
  9 12  1  0
 14 15  1  0
 17 19  1  0
M  END
>  <Molecule Name>  (16) 
JABXNQUXGJTKRO-MZSCVVMKNA-N

>  <hs_clash>  (16) 
0.0

>  <hs_total>  (16) 
173.62632233584637

>  <Total Molweight>  (16) 
289.382

>  <cLogP>  (16) 
2.7794

>  <H-Acceptors>  (16) 
6

>  <H-Donors>  (16) 
2

>  <Polar Surface Area>  (16) 
89.71

>  <Non-H Atoms>  (16) 
21

>  <sp3-Atoms>  (16) 
11

$$$$
GOILPRCCOREWQE-FZOZFQFYNA-N
     RDKit          3D

 11 12  0  0  0  0  0  0  0  0999 V2000
   26.5887    7.6777   63.5234 O   0  0  0  0  0  0  0  0  0  0  0  0
   27.1495    6.6915   64.2360 C   0  0  0  0  0  0  0  0  0  0  0  0
   27.1123    8.9437   63.7332 C   0  0  0  0  0  0  0  0  0  0  0  0
   28.1632    6.8999   65.0694 N   0  0  0  0  0  0  0  0  0  0  0  0
   26.6907    5.4479   64.0017 C   0  0  0  0  0  0  0  0  0  0  0  0
   28.7025    5.8515   65.8047 C   0  0  0  0  0  0  0  0  0  0  0  0
   25.7366    4.9698   63.2584 N   0  0  0  0  0  0  0  0  0  0  0  0
   27.2030    4.4003   64.6909 C   0  0  0  0  0  0  0  0  0  0  0  0
   28.1944    4.6217   65.5864 N   0  0  0  0  0  0  0  0  0  0  0  0
   25.6552    3.6634   63.4098 C   0  0  0  0  0  0  0  0  0  0  0  0
   26.5691    3.2773   64.3212 N   0  0  0  0  0  0  0  0  0  0  0  0
  1  2  1  0
  1  3  1  0
  2  4  2  0
  2  5  1  0
  4  6  1  0
  5  7  1  0
  5  8  2  0
  6  9  2  0
  7 10  2  0
  8 11  1  0
  8  9  1  0
 10 11  1  0
M  END
>  <Molecule Name>  (17) 
GOILPRCCOREWQE-FZOZFQFYNA-N

>  <hs_clash>  (17) 
0.0

>  <hs_total>  (17) 
172.14969276742207

>  <Total Molweight>  (17) 
150.141

>  <cLogP>  (17) 
0.2603

>  <H-Acceptors>  (17) 
5

>  <H-Donors>  (17) 
1

>  <Polar Surface Area>  (17) 
63.69

>  <Non-H Atoms>  (17) 
11

>  <sp3-Atoms>  (17) 
2

$$$$
HOOQLZPFGONGJY-LQFNOIFHNA-N
     RDKit          3D

 29 32  0  0  0  0  0  0  0  0999 V2000
   31.2014   11.9267   65.9067 O   0  0  0  0  0  0  0  0  0  0  0  0
   30.6982   10.6351   65.9866 C   0  0  0  0  0  0  0  0  0  0  0  0
   32.5791   11.8214   65.5600 C   0  0  0  0  0  0  0  0  0  0  0  0
   30.7326    9.9387   67.1794 C   0  0  0  0  0  0  0  0  0  0  0  0
   30.1469   10.0402   64.8677 C   0  0  0  0  0  0  0  0  0  0  0  0
   31.2783   10.5308   68.3089 O   0  0  0  0  0  0  0  0  0  0  0  0
   30.2235    8.6591   67.2487 C   0  0  0  0  0  0  0  0  0  0  0  0
   30.1167   10.7394   63.6664 O   0  0  0  0  0  0  0  0  0  0  0  0
   29.6456    8.7548   64.9482 C   0  0  0  0  0  0  0  0  0  0  0  0
   31.8272    9.4945   69.1164 C   0  0  0  0  0  0  0  0  0  0  0  0
   29.6731    8.0544   66.1398 C   0  0  0  0  0  0  0  0  0  0  0  0
   29.2844   10.0044   62.7712 C   0  0  0  0  0  0  0  0  0  0  0  0
   29.1767    6.7407   66.2748 N   0  0  0  0  0  0  0  0  0  0  0  0
   28.0412    6.1928   65.6494 C   0  0  0  0  0  0  0  0  0  0  0  0
   27.2744    6.9722   64.8704 N   0  0  0  0  0  0  0  0  0  0  0  0
   27.8394    4.8914   65.9131 N   0  0  0  0  0  0  0  0  0  0  0  0
   26.1396    6.2798   64.2915 N   0  0  0  0  0  0  0  0  0  0  0  0
   26.7979    4.2339   65.3908 C   0  0  0  0  0  0  0  0  0  0  0  0
   25.2017    6.7684   63.4770 C   0  0  0  0  0  0  0  0  0  0  0  0
   25.9552    4.9536   64.5833 C   0  0  0  0  0  0  0  0  0  0  0  0
   24.3920    5.7359   63.2341 N   0  0  0  0  0  0  0  0  0  0  0  0
   25.0614    8.1208   62.9097 C   0  0  0  0  0  0  0  0  0  0  0  0
   24.8221    4.5994   63.8906 C   0  0  0  0  0  0  0  0  0  0  0  0
   25.0851    8.2395   61.5346 C   0  0  0  0  0  0  0  0  0  0  0  0
   24.9164    9.2099   63.7410 C   0  0  0  0  0  0  0  0  0  0  0  0
   24.0920    3.3441   63.7663 C   0  0  0  0  0  0  0  0  0  0  0  0
   24.9607    9.4882   60.9694 C   0  0  0  0  0  0  0  0  0  0  0  0
   24.7932   10.4548   63.1666 C   0  0  0  0  0  0  0  0  0  0  0  0
   24.8168   10.5870   61.7919 C   0  0  0  0  0  0  0  0  0  0  0  0
  1  2  1  0
  1  3  1  0
  2  4  2  0
  2  5  1  0
  4  6  1  0
  4  7  1  0
  5  8  1  0
  5  9  2  0
  6 10  1  0
  7 11  2  0
  8 12  1  0
 11 13  1  0
 13 14  1  0
 14 15  2  0
 14 16  1  0
 15 17  1  0
 16 18  2  0
 17 19  1  0
 17 20  1  0
 19 21  2  0
 19 22  1  0
 20 23  2  0
 22 24  2  0
 22 25  1  0
 23 26  1  0
 24 27  1  0
 25 28  2  0
 27 29  2  0
  9 11  1  0
 18 20  1  0
 21 23  1  0
 28 29  1  0
M  END
>  <Molecule Name>  (18) 
HOOQLZPFGONGJY-LQFNOIFHNA-N

>  <hs_clash>  (18) 
1.0

>  <hs_total>  (18) 
169.7089035879314

>  <Total Molweight>  (18) 
391.430

>  <cLogP>  (18) 
2.8865

>  <H-Acceptors>  (18) 
8

>  <H-Donors>  (18) 
1

>  <Polar Surface Area>  (18) 
82.8

>  <Non-H Atoms>  (18) 
29

>  <sp3-Atoms>  (18) 
7

$$$$
LPQUJAANWFHCJV-QZINJFTLNA-N
     RDKit          3D

 19 20  0  0  0  0  0  0  0  0999 V2000
   32.8382   10.8990   64.8434 S   0  0  0  0  0  0  0  0  0  0  0  0
   33.2988   11.5951   66.1587 O   0  0  0  0  0  0  0  0  0  0  0  0
   34.1188   10.3570   64.1257 O   0  0  0  0  0  0  0  0  0  0  0  0
   32.0127   11.8814   63.9234 N   0  0  0  0  0  0  0  0  0  0  0  0
   31.9496    9.5874   65.2047 C   0  0  0  0  0  0  0  0  0  0  0  0
   32.3103    8.7660   66.2729 C   0  0  0  0  0  0  0  0  0  0  0  0
   30.8029    9.2629   64.4775 C   0  0  0  0  0  0  0  0  0  0  0  0
   31.5525    7.6272   66.5646 C   0  0  0  0  0  0  0  0  0  0  0  0
   30.0303    8.1238   64.7774 C   0  0  0  0  0  0  0  0  0  0  0  0
   30.3891    7.2905   65.8382 C   0  0  0  0  0  0  0  0  0  0  0  0
   29.7056    6.1663   66.2494 N   0  0  0  0  0  0  0  0  0  0  0  0
   28.4859    5.5123   65.7229 C   0  0  0  0  0  0  0  0  0  0  0  0
   27.2620    6.1850   64.5998 S   0  0  0  0  0  0  0  0  0  0  0  0
   28.2621    4.0969   65.9080 N   0  0  0  0  0  0  0  0  0  0  0  0
   26.5809    4.6442   64.5527 C   0  0  0  0  0  0  0  0  0  0  0  0
   27.2170    3.7185   65.2922 C   0  0  0  0  0  0  0  0  0  0  0  0
   25.2816    4.2777   63.8304 C   0  0  0  0  0  0  0  0  0  0  0  0
   24.2588    5.3887   64.0314 C   0  0  0  0  0  0  0  0  0  0  0  0
   25.3702    3.8941   62.3640 C   0  0  0  0  0  0  0  0  0  0  0  0
  1  2  2  0
  1  3  2  0
  1  4  1  0
  1  5  1  0
  5  6  2  0
  5  7  1  0
  6  8  1  0
  7  9  2  0
  8 10  2  0
 10 11  1  0
 11 12  1  0
 12 13  1  0
 12 14  2  0
 13 15  1  0
 14 16  1  0
 15 17  1  0
 17 18  1  0
 17 19  1  0
  9 10  1  0
 15 16  2  0
M  END
>  <Molecule Name>  (19) 
LPQUJAANWFHCJV-QZINJFTLNA-N

>  <hs_clash>  (19) 
2.0

>  <hs_total>  (19) 
168.18177851500934

>  <Total Molweight>  (19) 
297.402

>  <cLogP>  (19) 
2.8485

>  <H-Acceptors>  (19) 
5

>  <H-Donors>  (19) 
2

>  <Polar Surface Area>  (19) 
121.7

>  <Non-H Atoms>  (19) 
19

>  <sp3-Atoms>  (19) 
4

$$$$
SVWJDTLRFATPCQ-QWOVJGMINA-N
     RDKit          3D

 25 28  0  0  0  0  0  0  0  0999 V2000
   28.1774    7.0185   64.0756 S   0  0  0  0  0  0  0  0  0  0  0  0
   28.9138    6.0165   65.2434 C   0  0  0  0  0  0  0  0  0  0  0  0
   27.3052    5.6611   63.5087 C   0  0  0  0  0  0  0  0  0  0  0  0
   28.5109    4.7134   65.2267 N   0  0  0  0  0  0  0  0  0  0  0  0
   29.8536    6.4823   66.1332 N   0  0  0  0  0  0  0  0  0  0  0  0
   27.5933    4.5116   64.2456 C   0  0  0  0  0  0  0  0  0  0  0  0
   26.3600    5.7797   62.3452 C   0  0  0  0  0  0  0  0  0  0  0  0
   30.4682    7.7987   65.9050 C   0  0  0  0  0  0  0  0  0  0  0  0
   27.0403    3.2843   64.0206 N   0  0  0  0  0  0  0  0  0  0  0  0
   25.7181    4.6456   61.9574 O   0  0  0  0  0  0  0  0  0  0  0  0
   26.1598    6.9184   61.6366 C   0  0  0  0  0  0  0  0  0  0  0  0
   31.5237    7.7494   64.7479 C   0  0  0  0  0  0  0  0  0  0  0  0
   31.1370    8.3101   67.2095 C   0  0  0  0  0  0  0  0  0  0  0  0
   25.9314    8.1943   62.3365 C   0  0  0  0  0  0  0  0  0  0  0  0
   26.1964    6.9346   60.1771 C   0  0  0  0  0  0  0  0  0  0  0  0
   32.1590    9.1420   64.5082 C   0  0  0  0  0  0  0  0  0  0  0  0
   31.7897    9.6996   66.9957 C   0  0  0  0  0  0  0  0  0  0  0  0
   25.7561    9.4235   61.6056 C   0  0  0  0  0  0  0  0  0  0  0  0
   26.0195    8.1541   59.4268 C   0  0  0  0  0  0  0  0  0  0  0  0
   32.7881    9.7024   65.8101 C   0  0  0  0  0  0  0  0  0  0  0  0
   25.8041    9.4030   60.1126 C   0  0  0  0  0  0  0  0  0  0  0  0
   25.5390   10.6827   62.2988 C   0  0  0  0  0  0  0  0  0  0  0  0
   25.6361   10.6410   59.3793 C   0  0  0  0  0  0  0  0  0  0  0  0
   25.3762   11.9026   61.5404 C   0  0  0  0  0  0  0  0  0  0  0  0
   25.4249   11.8809   60.0950 C   0  0  0  0  0  0  0  0  0  0  0  0
  1  2  1  0
  1  3  1  0
  2  4  2  0
  2  5  1  0
  3  6  2  0
  3  7  1  0
  5  8  1  0
  6  9  1  0
  7 10  2  0
  7 11  1  0
  8 12  1  0
  8 13  1  0
 11 14  2  0
 11 15  1  0
 12 16  1  0
 13 17  1  0
 14 18  1  0
 15 19  2  0
 16 20  1  0
 18 21  2  0
 18 22  1  0
 21 23  1  0
 22 24  2  0
 23 25  2  0
  4  6  1  0
 17 20  1  0
 19 21  1  0
 24 25  1  0
M  END
>  <Molecule Name>  (20) 
SVWJDTLRFATPCQ-QWOVJGMINA-N

>  <hs_clash>  (20) 
0.0

>  <hs_total>  (20) 
167.30553469269472

>  <Total Molweight>  (20) 
351.473

>  <cLogP>  (20) 
4.5683

>  <H-Acceptors>  (20) 
4

>  <H-Donors>  (20) 
2

>  <Polar Surface Area>  (20) 
96.25

>  <Non-H Atoms>  (20) 
25

>  <sp3-Atoms>  (20) 
6

$$$$
LDXLQEXLXZCYSR-MTNXHNGONA-O
     RDKit          3D

 30 32  0  0  0  0  0  0  0  0999 V2000
   32.3919   10.7508   64.4396 S   0  0  0  0  0  0  0  0  0  0  0  0
   32.7321   11.5426   65.7813 O   0  0  0  0  0  0  0  0  0  0  0  0
   33.7254   10.3132   63.6898 O   0  0  0  0  0  0  0  0  0  0  0  0
   31.4638   11.7747   63.3854 N   0  0  0  0  0  0  0  0  0  0  0  0
   31.4256    9.3609   64.8043 C   0  0  0  0  0  0  0  0  0  0  0  0
   30.9798   12.9913   64.0711 C   0  0  0  0  0  0  0  0  0  0  0  0
   30.4804    8.9147   63.8545 C   0  0  0  0  0  0  0  0  0  0  0  0
   31.6076    8.7030   66.0435 C   0  0  0  0  0  0  0  0  0  0  0  0
   30.1847   13.8788   63.1114 C   0  0  0  0  0  0  0  0  0  0  0  0
   29.6966    7.7774   64.1496 C   0  0  0  0  0  0  0  0  0  0  0  0
   30.8187    7.5626   66.3355 C   0  0  0  0  0  0  0  0  0  0  0  0
   29.7349   15.0569   63.8087 O   0  0  0  0  0  0  0  0  0  0  0  0
   29.8550    7.0861   65.3943 C   0  0  0  0  0  0  0  0  0  0  0  0
   28.9693   15.9779   62.9963 C   0  0  0  0  0  0  0  0  0  0  0  0
   29.0886    5.9120   65.7630 N   0  0  0  0  0  0  0  0  0  0  0  0
   28.0947    5.0710   65.1352 C   0  0  0  0  0  0  0  0  0  0  0  0
   27.1927    5.7292   64.3875 N   0  0  0  0  0  0  0  0  0  0  0  0
   28.1140    3.7490   65.3150 N   0  0  0  0  0  0  0  0  0  0  0  0
   26.2046    5.0376   63.7446 C   0  0  0  0  0  0  0  0  0  0  0  0
   27.1676    3.0093   64.7096 C   0  0  0  0  0  0  0  0  0  0  0  0
   25.2391    5.7485   62.9325 C   0  0  0  0  0  0  0  0  0  0  0  0
   26.1637    3.5968   63.8979 C   0  0  0  0  0  0  0  0  0  0  0  0
   25.4428    6.9643   62.1879 N   0  0  0  0  0  0  0  0  0  0  0  0
   23.8865    5.3140   62.7374 C   0  0  0  0  0  0  0  0  0  0  0  0
   24.1346    7.0839   61.6360 C   0  0  0  0  0  0  0  0  0  0  0  0
   26.7034    7.8212   62.0373 C   0  0  0  0  0  0  0  0  0  0  0  0
   23.1738    6.1509   61.9192 N   0  0  0  0  0  0  0  0  0  0  0  0
   23.6688    8.2171   60.6965 C   0  0  0  0  0  0  0  0  0  0  0  0
   27.2110    7.8472   60.5821 C   0  0  0  0  0  0  0  0  0  0  0  0
   26.4891    9.2629   62.5712 C   0  0  0  0  0  0  0  0  0  0  0  0
  1  2  2  0
  1  3  2  0
  1  4  1  0
  1  5  1  0
  4  6  1  0
  5  7  2  0
  5  8  1  0
  6  9  1  0
  7 10  1  0
  8 11  2  0
  9 12  1  0
 10 13  2  0
 12 14  1  0
 13 15  1  0
 15 16  1  0
 16 17  2  0
 16 18  1  0
 17 19  1  0
 18 20  2  0
 19 21  1  0
 19 22  2  0
 21 23  1  0
 21 24  2  0
 23 25  1  0
 23 26  1  0
 24 27  1  0
 25 28  1  0
 26 29  1  0
 26 30  1  0
 11 13  1  0
 20 22  1  0
 25 27  2  0
M  CHG  1  27   1
M  END
>  <Molecule Name>  (21) 
LDXLQEXLXZCYSR-MTNXHNGONA-O

>  <hs_clash>  (21) 
10.0

>  <hs_total>  (21) 
166.9215795946046

>  <Total Molweight>  (21) 
431.539

>  <cLogP>  (21) 
0.1624

>  <H-Acceptors>  (21) 
9

>  <H-Donors>  (21) 
3

>  <Polar Surface Area>  (21) 
120.66

>  <Non-H Atoms>  (21) 
30

>  <sp3-Atoms>  (21) 
9

$$$$
TZFLUWBMBJLZQO-BDGWVKIONA-N
     RDKit          3D

 23 25  0  0  0  0  0  0  0  0999 V2000
   24.2353    4.9535   61.7807 F   0  0  0  0  0  0  0  0  0  0  0  0
   25.2699    5.2043   62.6043 C   0  0  0  0  0  0  0  0  0  0  0  0
   25.6678    4.1966   63.4909 C   0  0  0  0  0  0  0  0  0  0  0  0
   25.9449    6.4354   62.5700 C   0  0  0  0  0  0  0  0  0  0  0  0
   24.9917    3.0329   63.5161 F   0  0  0  0  0  0  0  0  0  0  0  0
   26.7388    4.4051   64.3586 C   0  0  0  0  0  0  0  0  0  0  0  0
   25.6028    7.3962   61.6001 C   0  0  0  0  0  0  0  0  0  0  0  0
   27.0540    6.6201   63.4191 C   0  0  0  0  0  0  0  0  0  0  0  0
   27.3603    3.6033   65.2302 N   0  0  0  0  0  0  0  0  0  0  0  0
   27.4205    5.6192   64.3382 C   0  0  0  0  0  0  0  0  0  0  0  0
   24.2772    7.8013   61.3849 C   0  0  0  0  0  0  0  0  0  0  0  0
   26.5998    7.9134   60.7700 C   0  0  0  0  0  0  0  0  0  0  0  0
   28.2912    4.1975   65.7864 N   0  0  0  0  0  0  0  0  0  0  0  0
   28.4073    5.4347   65.3055 C   0  0  0  0  0  0  0  0  0  0  0  0
   23.9721    8.7391   60.3933 C   0  0  0  0  0  0  0  0  0  0  0  0
   26.3018    8.8582   59.7844 C   0  0  0  0  0  0  0  0  0  0  0  0
   29.4315    6.2340   65.6421 N   0  0  0  0  0  0  0  0  0  0  0  0
   24.9830    9.2712   59.5915 C   0  0  0  0  0  0  0  0  0  0  0  0
   29.4310    7.5791   65.6673 C   0  0  0  0  0  0  0  0  0  0  0  0
   28.4801    8.3042   65.3866 O   0  0  0  0  0  0  0  0  0  0  0  0
   30.7604    8.2107   66.1060 C   0  0  0  0  0  0  0  0  0  0  0  0
   31.6898    8.4141   64.9106 C   0  0  0  0  0  0  0  0  0  0  0  0
   32.6984    9.5252   65.1984 C   0  0  0  0  0  0  0  0  0  0  0  0
  1  2  1  0
  2  3  2  0
  2  4  1  0
  3  5  1  0
  3  6  1  0
  4  7  1  0
  4  8  2  0
  6  9  1  0
  6 10  2  0
  7 11  2  0
  7 12  1  0
  9 13  1  0
 10 14  1  0
 11 15  1  0
 12 16  2  0
 14 17  1  0
 15 18  2  0
 17 19  1  0
 19 20  2  0
 19 21  1  0
 21 22  1  0
 22 23  1  0
  8 10  1  0
 13 14  2  0
 16 18  1  0
M  END
>  <Molecule Name>  (22) 
TZFLUWBMBJLZQO-BDGWVKIONA-N

>  <hs_clash>  (22) 
0.0

>  <hs_total>  (22) 
166.5790363754697

>  <Total Molweight>  (22) 
315.322

>  <cLogP>  (22) 
3.6948

>  <H-Acceptors>  (22) 
4

>  <H-Donors>  (22) 
2

>  <Polar Surface Area>  (22) 
57.78

>  <Non-H Atoms>  (22) 
23

>  <sp3-Atoms>  (22) 
3

$$$$
DNIAIAOWBNWMBV-HCKMINDGNA-N
     RDKit          3D

 18 20  0  0  0  0  0  0  0  0999 V2000
   32.9419   10.7495   63.4949 Cl  0  0  0  0  0  0  0  0  0  0  0  0
   32.3661    9.8569   64.8455 C   0  0  0  0  0  0  0  0  0  0  0  0
   31.6606    8.6629   64.6468 C   0  0  0  0  0  0  0  0  0  0  0  0
   32.6033   10.3196   66.1449 C   0  0  0  0  0  0  0  0  0  0  0  0
   31.1886    7.9281   65.7460 C   0  0  0  0  0  0  0  0  0  0  0  0
   32.1344    9.5867   67.2385 C   0  0  0  0  0  0  0  0  0  0  0  0
   30.4601    6.6791   65.5660 N   0  0  0  0  0  0  0  0  0  0  0  0
   31.4310    8.3986   67.0374 C   0  0  0  0  0  0  0  0  0  0  0  0
   29.2071    6.7119   64.9391 C   0  0  0  0  0  0  0  0  0  0  0  0
   28.7673    7.8530   64.2828 N   0  0  0  0  0  0  0  0  0  0  0  0
   28.2830    5.5816   64.9100 C   0  0  0  0  0  0  0  0  0  0  0  0
   27.5366    7.9100   63.6448 C   0  0  0  0  0  0  0  0  0  0  0  0
   28.3699    4.3271   65.4270 N   0  0  0  0  0  0  0  0  0  0  0  0
   27.0720    5.7923   64.2176 C   0  0  0  0  0  0  0  0  0  0  0  0
   26.6552    6.9242   63.5742 N   0  0  0  0  0  0  0  0  0  0  0  0
   27.2425    3.7225   65.0623 C   0  0  0  0  0  0  0  0  0  0  0  0
   26.3931    4.5591   64.3137 N   0  0  0  0  0  0  0  0  0  0  0  0
   25.0584    4.1612   63.7372 C   0  0  0  0  0  0  0  0  0  0  0  0
  1  2  1  0
  2  3  2  0
  2  4  1  0
  3  5  1  0
  4  6  2  0
  5  7  1  0
  5  8  2  0
  7  9  1  0
  9 10  2  0
  9 11  1  0
 10 12  1  0
 11 13  1  0
 11 14  2  0
 12 15  2  0
 13 16  2  0
 14 17  1  0
 17 18  1  0
  6  8  1  0
 14 15  1  0
 16 17  1  0
M  END
>  <Molecule Name>  (23) 
DNIAIAOWBNWMBV-HCKMINDGNA-N

>  <hs_clash>  (23) 
0.0

>  <hs_total>  (23) 
164.94007903036928

>  <Total Molweight>  (23) 
259.699

>  <cLogP>  (23) 
2.5995

>  <H-Acceptors>  (23) 
5

>  <H-Donors>  (23) 
1

>  <Polar Surface Area>  (23) 
55.63

>  <Non-H Atoms>  (23) 
18

>  <sp3-Atoms>  (23) 
1

$$$$
WMZYZYFPPQOFKY-WYCIUFAENA-N
     RDKit          3D

 14 15  0  0  0  0  0  0  0  0999 V2000
   27.9891    7.3521   64.3764 O   0  0  0  0  0  0  0  0  0  0  0  0
   28.4288    6.3760   64.9108 C   0  0  0  0  0  0  0  0  0  0  0  0
   29.5871    6.3793   65.5970 N   0  0  0  0  0  0  0  0  0  0  0  0
   27.7408    5.0841   64.8028 C   0  0  0  0  0  0  0  0  0  0  0  0
   30.5255    7.4173   65.6429 C   0  0  0  0  0  0  0  0  0  0  0  0
   28.2194    4.0214   65.3943 N   0  0  0  0  0  0  0  0  0  0  0  0
   26.5907    4.8030   64.0768 C   0  0  0  0  0  0  0  0  0  0  0  0
   30.8004    8.1740   64.5031 C   0  0  0  0  0  0  0  0  0  0  0  0
   31.2033    7.7013   66.8248 C   0  0  0  0  0  0  0  0  0  0  0  0
   27.3488    3.0351   65.0677 N   0  0  0  0  0  0  0  0  0  0  0  0
   26.3631    3.4878   64.2733 C   0  0  0  0  0  0  0  0  0  0  0  0
   31.7245    9.1990   64.5551 C   0  0  0  0  0  0  0  0  0  0  0  0
   32.1215    8.7274   66.8689 C   0  0  0  0  0  0  0  0  0  0  0  0
   32.3860    9.4724   65.7371 C   0  0  0  0  0  0  0  0  0  0  0  0
  1  2  2  0
  2  3  1  0
  2  4  1  0
  3  5  1  0
  4  6  2  0
  4  7  1  0
  5  8  2  0
  5  9  1  0
  6 10  1  0
  7 11  2  0
  8 12  1  0
  9 13  2  0
 12 14  2  0
 10 11  1  0
 13 14  1  0
M  END
>  <Molecule Name>  (24) 
WMZYZYFPPQOFKY-WYCIUFAENA-N

>  <hs_clash>  (24) 
0.0

>  <hs_total>  (24) 
164.43992528813374

>  <Total Molweight>  (24) 
187.201

>  <cLogP>  (24) 
0.7547

>  <H-Acceptors>  (24) 
4

>  <H-Donors>  (24) 
2

>  <Polar Surface Area>  (24) 
57.78

>  <Non-H Atoms>  (24) 
14

>  <sp3-Atoms>  (24) 
0

$$$$
DMSXJUBZGKCYAA-QWOVJGMINA-N
     RDKit          3D

 25 27  0  0  0  0  0  0  0  0999 V2000
   28.4950    6.9593   63.9311 S   0  0  0  0  0  0  0  0  0  0  0  0
   29.2201    5.9277   65.0807 C   0  0  0  0  0  0  0  0  0  0  0  0
   27.4443    5.7073   63.4672 C   0  0  0  0  0  0  0  0  0  0  0  0
   28.6786    4.6782   65.1192 N   0  0  0  0  0  0  0  0  0  0  0  0
   30.2372    6.2627   65.8907 N   0  0  0  0  0  0  0  0  0  0  0  0
   27.6760    4.5472   64.2159 C   0  0  0  0  0  0  0  0  0  0  0  0
   26.4158    5.8983   62.3574 C   0  0  0  0  0  0  0  0  0  0  0  0
   31.0748    7.4024   65.8434 C   0  0  0  0  0  0  0  0  0  0  0  0
   26.9917    3.3772   64.0692 N   0  0  0  0  0  0  0  0  0  0  0  0
   25.7112    4.8016   62.0185 O   0  0  0  0  0  0  0  0  0  0  0  0
   26.2068    7.0835   61.6394 C   0  0  0  0  0  0  0  0  0  0  0  0
   31.3958    8.1953   64.6304 C   0  0  0  0  0  0  0  0  0  0  0  0
   31.6729    7.8385   67.0931 C   0  0  0  0  0  0  0  0  0  0  0  0
   26.1732    8.3953   62.2994 C   0  0  0  0  0  0  0  0  0  0  0  0
   26.0111    7.0583   60.1821 C   0  0  0  0  0  0  0  0  0  0  0  0
   32.2634    9.3493   64.6981 C   0  0  0  0  0  0  0  0  0  0  0  0
   32.5393    8.9911   67.1520 C   0  0  0  0  0  0  0  0  0  0  0  0
   25.9596    9.6420   61.5648 C   0  0  0  0  0  0  0  0  0  0  0  0
   25.7985    8.2727   59.4418 C   0  0  0  0  0  0  0  0  0  0  0  0
   32.8296    9.7415   65.9614 C   0  0  0  0  0  0  0  0  0  0  0  0
   25.7730    9.5427   60.1167 C   0  0  0  0  0  0  0  0  0  0  0  0
   25.9258   10.9248   62.2052 C   0  0  0  0  0  0  0  0  0  0  0  0
   26.2195   10.8202   63.5607 F   0  0  0  0  0  0  0  0  0  0  0  0
   24.6736   11.4879   62.0950 F   0  0  0  0  0  0  0  0  0  0  0  0
   26.8462   11.7886   61.6251 F   0  0  0  0  0  0  0  0  0  0  0  0
  1  2  1  0
  1  3  1  0
  2  4  2  0
  2  5  1  0
  3  6  2  0
  3  7  1  0
  5  8  1  0
  6  9  1  0
  7 10  2  0
  7 11  1  0
  8 12  2  0
  8 13  1  0
 11 14  2  0
 11 15  1  0
 12 16  1  0
 13 17  2  0
 14 18  1  0
 15 19  2  0
 16 20  2  0
 18 21  2  0
 18 22  1  0
 22 23  1  0
 22 24  1  0
 22 25  1  0
  4  6  1  0
 17 20  1  0
 19 21  1  0
M  END
>  <Molecule Name>  (25) 
DMSXJUBZGKCYAA-QWOVJGMINA-N

>  <hs_clash>  (25) 
0.0

>  <hs_total>  (25) 
162.70439626855995

>  <Total Molweight>  (25) 
363.362

>  <cLogP>  (25) 
4.5499

>  <H-Acceptors>  (25) 
4

>  <H-Donors>  (25) 
2

>  <Polar Surface Area>  (25) 
96.25

>  <Non-H Atoms>  (25) 
25

>  <sp3-Atoms>  (25) 
1

$$$$
NMAZGYDYIYLSLJ-SDRQFZCRNA-N
     RDKit          3D

 28 31  0  0  0  0  0  0  0  0999 V2000
   33.4075   10.9014   64.4860 S   0  0  0  0  0  0  0  0  0  0  0  0
   33.8625   11.2637   65.8253 O   0  0  0  0  0  0  0  0  0  0  0  0
   34.5757   10.3755   63.7618 O   0  0  0  0  0  0  0  0  0  0  0  0
   32.7848   12.1237   63.6527 N   0  0  0  0  0  0  0  0  0  0  0  0
   32.2387    9.6662   64.7269 C   0  0  0  0  0  0  0  0  0  0  0  0
   32.0140    9.1717   66.0060 C   0  0  0  0  0  0  0  0  0  0  0  0
   31.5345    9.2375   63.5958 C   0  0  0  0  0  0  0  0  0  0  0  0
   31.0617    8.1616   66.1983 C   0  0  0  0  0  0  0  0  0  0  0  0
   30.5972    8.2292   63.8000 C   0  0  0  0  0  0  0  0  0  0  0  0
   30.3473    7.6940   65.0827 C   0  0  0  0  0  0  0  0  0  0  0  0
   29.4220    6.6985   65.2678 N   0  0  0  0  0  0  0  0  0  0  0  0
   28.3162    6.4796   64.4801 C   0  0  0  0  0  0  0  0  0  0  0  0
   27.7159    5.2578   64.4431 N   0  0  0  0  0  0  0  0  0  0  0  0
   27.7088    7.5107   63.7503 C   0  0  0  0  0  0  0  0  0  0  0  0
   28.0751    4.1486   65.0633 N   0  0  0  0  0  0  0  0  0  0  0  0
   26.6307    4.9895   63.6991 C   0  0  0  0  0  0  0  0  0  0  0  0
   26.5882    7.2010   62.9723 C   0  0  0  0  0  0  0  0  0  0  0  0
   27.2246    3.1781   64.6745 C   0  0  0  0  0  0  0  0  0  0  0  0
   26.0487    5.9351   62.9439 N   0  0  0  0  0  0  0  0  0  0  0  0
   26.2984    3.6899   63.8248 N   0  0  0  0  0  0  0  0  0  0  0  0
   25.9965    8.1850   62.2364 O   0  0  0  0  0  0  0  0  0  0  0  0
   26.2901    7.9991   60.8496 C   0  0  0  0  0  0  0  0  0  0  0  0
   26.0917    9.3385   60.1211 C   0  0  0  0  0  0  0  0  0  0  0  0
   24.9065   10.1698   60.6299 C   0  0  0  0  0  0  0  0  0  0  0  0
   25.9487    9.0933   58.6168 C   0  0  0  0  0  0  0  0  0  0  0  0
   24.8640   11.5068   59.8799 C   0  0  0  0  0  0  0  0  0  0  0  0
   25.9473   10.4366   57.8875 C   0  0  0  0  0  0  0  0  0  0  0  0
   24.7499   11.2594   58.3696 C   0  0  0  0  0  0  0  0  0  0  0  0
  1  2  2  0
  1  3  2  0
  1  4  1  0
  1  5  1  0
  5  6  2  0
  5  7  1  0
  6  8  1  0
  7  9  2  0
  8 10  2  0
 10 11  1  0
 11 12  1  0
 12 13  1  0
 12 14  2  0
 13 15  1  0
 13 16  1  0
 14 17  1  0
 15 18  2  0
 16 19  1  0
 16 20  2  0
 17 21  1  0
 21 22  1  0
 22 23  1  0
 23 24  1  0
 23 25  1  0
 24 26  1  0
 25 27  1  0
 26 28  1  0
  9 10  1  0
 17 19  2  0
 18 20  1  0
 27 28  1  0
M  END
>  <Molecule Name>  (26) 
NMAZGYDYIYLSLJ-SDRQFZCRNA-N

>  <hs_clash>  (26) 
9.0

>  <hs_total>  (26) 
161.61043106742207

>  <Total Molweight>  (26) 
402.478

>  <cLogP>  (26) 
1.9369

>  <H-Acceptors>  (26) 
9

>  <H-Donors>  (26) 
2

>  <Polar Surface Area>  (26) 
132.88

>  <Non-H Atoms>  (26) 
28

>  <sp3-Atoms>  (26) 
9

$$$$
LXRVAGIYXNQOKP-WYUMXYHSNA-N
     RDKit          3D

 18 20  0  0  0  0  0  0  0  0999 V2000
   29.0961    8.1271   64.1139 N   0  0  0  0  0  0  0  0  0  0  0  0
   29.4299    6.9952   64.7895 C   0  0  0  0  0  0  0  0  0  0  0  0
   27.8964    8.1496   63.4532 C   0  0  0  0  0  0  0  0  0  0  0  0
   30.6162    6.8868   65.4874 N   0  0  0  0  0  0  0  0  0  0  0  0
   28.5176    5.8292   64.8169 C   0  0  0  0  0  0  0  0  0  0  0  0
   26.9792    7.1014   63.4135 C   0  0  0  0  0  0  0  0  0  0  0  0
   31.6386    7.9160   65.3613 C   0  0  0  0  0  0  0  0  0  0  0  0
   28.6197    4.6027   65.4409 N   0  0  0  0  0  0  0  0  0  0  0  0
   27.2802    5.9373   64.1030 N   0  0  0  0  0  0  0  0  0  0  0  0
   31.6960    8.8524   66.5416 C   0  0  0  0  0  0  0  0  0  0  0  0
   27.4711    3.8932   65.0524 C   0  0  0  0  0  0  0  0  0  0  0  0
   26.6025    4.7171   64.2583 C   0  0  0  0  0  0  0  0  0  0  0  0
   31.5242   10.2355   66.3585 C   0  0  0  0  0  0  0  0  0  0  0  0
   31.9168    8.3748   67.8342 C   0  0  0  0  0  0  0  0  0  0  0  0
   25.2861    4.4077   63.6797 C   0  0  0  0  0  0  0  0  0  0  0  0
   31.5828   11.0774   67.4878 C   0  0  0  0  0  0  0  0  0  0  0  0
   31.9685    9.2933   68.9014 C   0  0  0  0  0  0  0  0  0  0  0  0
   31.8068   10.6231   68.7465 N   0  0  0  0  0  0  0  0  0  0  0  0
  1  2  2  0
  1  3  1  0
  2  4  1  0
  2  5  1  0
  3  6  2  0
  4  7  1  0
  5  8  2  0
  5  9  1  0
  7 10  1  0
  8 11  1  0
  9 12  1  0
 10 13  2  0
 10 14  1  0
 12 15  1  0
 13 16  1  0
 14 17  2  0
 16 18  2  0
  6  9  1  0
 11 12  2  0
 17 18  1  0
M  END
>  <Molecule Name>  (27) 
LXRVAGIYXNQOKP-WYUMXYHSNA-N

>  <hs_clash>  (27) 
0.0

>  <hs_total>  (27) 
160.0785864249244

>  <Total Molweight>  (27) 
239.281

>  <cLogP>  (27) 
0.4147

>  <H-Acceptors>  (27) 
5

>  <H-Donors>  (27) 
1

>  <Polar Surface Area>  (27) 
55.11

>  <Non-H Atoms>  (27) 
18

>  <sp3-Atoms>  (27) 
2

$$$$
BEXUQVHWMLPYKY-VMIOWZCSNA-N
     RDKit          3D

 17 18  0  0  0  0  0  0  0  0999 V2000
   24.9543    9.6331   61.6849 O   0  0  0  0  0  0  0  0  0  0  0  0
   25.8815   10.0509   62.4171 C   0  0  0  0  0  0  0  0  0  0  0  0
   26.3661   11.4706   62.4285 C   0  0  0  0  0  0  0  0  0  0  0  0
   26.6441    9.1842   63.3810 C   0  0  0  0  0  0  0  0  0  0  0  0
   26.6933   11.9408   61.0255 C   0  0  0  0  0  0  0  0  0  0  0  0
   25.3489   12.3706   63.1007 C   0  0  0  0  0  0  0  0  0  0  0  0
   26.4174    7.8208   63.1494 O   0  0  0  0  0  0  0  0  0  0  0  0
   26.9945    6.8830   63.8941 C   0  0  0  0  0  0  0  0  0  0  0  0
   28.0065    7.1503   64.6941 N   0  0  0  0  0  0  0  0  0  0  0  0
   26.5952    5.5009   63.7535 C   0  0  0  0  0  0  0  0  0  0  0  0
   28.6272    6.2261   65.4879 C   0  0  0  0  0  0  0  0  0  0  0  0
   25.6481    4.8555   63.0466 N   0  0  0  0  0  0  0  0  0  0  0  0
   27.2766    4.5887   64.6207 C   0  0  0  0  0  0  0  0  0  0  0  0
   28.2944    4.9411   65.4392 N   0  0  0  0  0  0  0  0  0  0  0  0
   29.6290    6.5857   66.3022 N   0  0  0  0  0  0  0  0  0  0  0  0
   25.7106    3.6112   63.4263 C   0  0  0  0  0  0  0  0  0  0  0  0
   26.6648    3.4400   64.3299 N   0  0  0  0  0  0  0  0  0  0  0  0
  1  2  2  0
  2  3  1  0
  2  4  1  0
  3  5  1  0
  3  6  1  0
  4  7  1  0
  7  8  1  0
  8  9  2  0
  8 10  1  0
  9 11  1  0
 10 12  1  0
 10 13  2  0
 11 14  2  0
 11 15  1  0
 12 16  2  0
 13 17  1  0
 13 14  1  0
 16 17  1  0
M  END
>  <Molecule Name>  (28) 
BEXUQVHWMLPYKY-VMIOWZCSNA-N

>  <hs_clash>  (28) 
0.0

>  <hs_total>  (28) 
158.92810579354853

>  <Total Molweight>  (28) 
235.246

>  <cLogP>  (28) 
0.4329

>  <H-Acceptors>  (28) 
7

>  <H-Donors>  (28) 
2

>  <Polar Surface Area>  (28) 
106.78

>  <Non-H Atoms>  (28) 
17

>  <sp3-Atoms>  (28) 
5

$$$$
JGCFEPVKTSZCHG-ZHLVXTBQNA-N
     RDKit          3D

 22 23  0  0  0  0  0  0  0  0999 V2000
   31.9872   11.2097   68.9534 Cl  0  0  0  0  0  0  0  0  0  0  0  0
   31.5801   10.0695   67.7315 C   0  0  0  0  0  0  0  0  0  0  0  0
   31.3086    8.7785   68.1129 N   0  0  0  0  0  0  0  0  0  0  0  0
   31.5408   10.5098   66.3971 C   0  0  0  0  0  0  0  0  0  0  0  0
   30.9837    7.8756   67.1219 C   0  0  0  0  0  0  0  0  0  0  0  0
   31.2033    9.5609   65.4014 C   0  0  0  0  0  0  0  0  0  0  0  0
   30.9196    8.2205   65.7573 C   0  0  0  0  0  0  0  0  0  0  0  0
   30.5564    7.2013   64.7028 C   0  0  0  0  0  0  0  0  0  0  0  0
   29.3357    6.4670   65.1217 N   0  0  0  0  0  0  0  0  0  0  0  0
   28.1609    6.7045   64.6364 C   0  0  0  0  0  0  0  0  0  0  0  0
   27.1890    5.6522   64.5467 C   0  0  0  0  0  0  0  0  0  0  0  0
   27.8152    8.0166   64.1903 C   0  0  0  0  0  0  0  0  0  0  0  0
   27.4699    4.3673   64.9867 C   0  0  0  0  0  0  0  0  0  0  0  0
   25.8939    5.9408   63.9907 C   0  0  0  0  0  0  0  0  0  0  0  0
   26.5410    8.3054   63.6531 C   0  0  0  0  0  0  0  0  0  0  0  0
   28.3208    4.1762   65.8438 O   0  0  0  0  0  0  0  0  0  0  0  0
   26.7778    3.2986   64.4858 N   0  0  0  0  0  0  0  0  0  0  0  0
   25.5562    7.2565   63.5355 C   0  0  0  0  0  0  0  0  0  0  0  0
   26.2324    9.9267   63.1600 Cl  0  0  0  0  0  0  0  0  0  0  0  0
   24.3889    7.4685   63.0369 N   0  0  0  0  0  0  0  0  0  0  0  0
   24.2478    8.1925   61.9461 O   0  0  0  0  0  0  0  0  0  0  0  0
   23.3191    6.9288   63.5675 O   0  0  0  0  0  0  0  0  0  0  0  0
  1  2  1  0
  2  3  2  0
  2  4  1  0
  3  5  1  0
  4  6  2  0
  5  7  2  0
  7  8  1  0
  8  9  1  0
  9 10  1  0
 10 11  2  0
 10 12  1  0
 11 13  1  0
 11 14  1  0
 12 15  2  0
 13 16  2  0
 13 17  1  0
 14 18  2  0
 15 19  1  0
 18 20  1  0
 20 21  2  0
 20 22  1  0
  6  7  1  0
 15 18  1  0
M  CHG  2  20   1  22  -1
M  END
>  <Molecule Name>  (29) 
JGCFEPVKTSZCHG-ZHLVXTBQNA-N

>  <hs_clash>  (29) 
0.0

>  <hs_total>  (29) 
158.321499982294

>  <Total Molweight>  (29) 
341.153

>  <cLogP>  (29) 
1.1989

>  <H-Acceptors>  (29) 
7

>  <H-Donors>  (29) 
2

>  <Polar Surface Area>  (29) 
113.83

>  <Non-H Atoms>  (29) 
22

>  <sp3-Atoms>  (29) 
2

$$$$
XWWRLKIBRPJQJX-BDGWVKIONA-N
     RDKit          3D

 24 27  0  0  0  0  0  0  0  0999 V2000
   25.2199    6.9962   63.4694 O   0  0  0  0  0  0  0  0  0  0  0  0
   26.0359    6.1496   64.1187 C   0  0  0  0  0  0  0  0  0  0  0  0
   26.0327    8.1808   63.2694 C   0  0  0  0  0  0  0  0  0  0  0  0
   27.0931    6.5895   64.7175 N   0  0  0  0  0  0  0  0  0  0  0  0
   25.7603    4.7266   64.1880 C   0  0  0  0  0  0  0  0  0  0  0  0
   25.3693    9.0652   62.1840 C   0  0  0  0  0  0  0  0  0  0  0  0
   28.0223    5.7161   65.4310 C   0  0  0  0  0  0  0  0  0  0  0  0
   24.7871    3.7768   63.7290 N   0  0  0  0  0  0  0  0  0  0  0  0
   26.6046    3.9234   64.8480 C   0  0  0  0  0  0  0  0  0  0  0  0
   25.2699   10.4903   62.7677 C   0  0  0  0  0  0  0  0  0  0  0  0
   26.2311    8.9972   60.8837 C   0  0  0  0  0  0  0  0  0  0  0  0
   27.7669    4.4718   65.4635 N   0  0  0  0  0  0  0  0  0  0  0  0
   29.1242    6.0112   66.0495 N   0  0  0  0  0  0  0  0  0  0  0  0
   25.1379    2.6251   64.1220 C   0  0  0  0  0  0  0  0  0  0  0  0
   26.2501    2.6722   64.8144 N   0  0  0  0  0  0  0  0  0  0  0  0
   24.9776   11.5734   61.7144 C   0  0  0  0  0  0  0  0  0  0  0  0
   25.9126   10.1015   59.8539 C   0  0  0  0  0  0  0  0  0  0  0  0
   29.8047    7.1299   65.7131 C   0  0  0  0  0  0  0  0  0  0  0  0
   25.8500   11.5262   60.4515 C   0  0  0  0  0  0  0  0  0  0  0  0
   30.4756    7.8450   66.7005 C   0  0  0  0  0  0  0  0  0  0  0  0
   29.8157    7.5623   64.3925 C   0  0  0  0  0  0  0  0  0  0  0  0
   31.1786    9.0012   66.3977 C   0  0  0  0  0  0  0  0  0  0  0  0
   30.5003    8.7379   64.0912 C   0  0  0  0  0  0  0  0  0  0  0  0
   31.1862    9.4483   65.0731 C   0  0  0  0  0  0  0  0  0  0  0  0
  1  2  1  0
  1  3  1  0
  2  4  2  0
  2  5  1  0
  3  6  1  0
  4  7  1  0
  5  8  1  0
  5  9  2  0
  6 10  1  0
  6 11  1  0
  7 12  2  0
  7 13  1  0
  8 14  2  0
  9 15  1  0
 10 16  1  0
 11 17  1  0
 13 18  1  0
 16 19  1  0
 18 20  2  0
 18 21  1  0
 20 22  1  0
 21 23  2  0
 22 24  2  0
  9 12  1  0
 14 15  1  0
 17 19  1  0
 23 24  1  0
M  END
>  <Molecule Name>  (30) 
XWWRLKIBRPJQJX-BDGWVKIONA-N

>  <hs_clash>  (30) 
0.0

>  <hs_total>  (30) 
158.2174602355578

>  <Total Molweight>  (30) 
323.399

>  <cLogP>  (30) 
3.9106

>  <H-Acceptors>  (30) 
6

>  <H-Donors>  (30) 
2

>  <Polar Surface Area>  (30) 
75.72

>  <Non-H Atoms>  (30) 
24

>  <sp3-Atoms>  (30) 
8

$$$$
CVYWYUAQFJMLEO-UHFFFAOYNA-N
     RDKit          3D

 25 28  0  0  0  0  0  0  0  0999 V2000
   26.7984   10.4278   63.8943 Cl  0  0  0  0  0  0  0  0  0  0  0  0
   26.5247    9.9773   62.3044 C   0  0  0  0  0  0  0  0  0  0  0  0
   26.0988   10.9258   61.3840 C   0  0  0  0  0  0  0  0  0  0  0  0
   26.7228    8.6558   61.8800 C   0  0  0  0  0  0  0  0  0  0  0  0
   25.8286   12.5272   61.8651 Cl  0  0  0  0  0  0  0  0  0  0  0  0
   25.8647   10.5786   60.0533 C   0  0  0  0  0  0  0  0  0  0  0  0
   27.1317    7.5639   62.7971 C   0  0  0  0  0  0  0  0  0  0  0  0
   26.4786    8.3129   60.5431 C   0  0  0  0  0  0  0  0  0  0  0  0
   26.0372    9.2662   59.6417 C   0  0  0  0  0  0  0  0  0  0  0  0
   26.3266    6.5017   62.8553 N   0  0  0  0  0  0  0  0  0  0  0  0
   28.4136    7.6465   63.4508 C   0  0  0  0  0  0  0  0  0  0  0  0
   26.7541    5.4658   63.6349 C   0  0  0  0  0  0  0  0  0  0  0  0
   28.8449    6.5702   64.2531 C   0  0  0  0  0  0  0  0  0  0  0  0
   28.0045    5.4899   64.3680 N   0  0  0  0  0  0  0  0  0  0  0  0
   26.1810    4.1982   63.9512 C   0  0  0  0  0  0  0  0  0  0  0  0
   30.0571    6.5164   64.8994 N   0  0  0  0  0  0  0  0  0  0  0  0
   28.1957    4.3538   65.0920 N   0  0  0  0  0  0  0  0  0  0  0  0
   27.1315    3.5547   64.8114 C   0  0  0  0  0  0  0  0  0  0  0  0
   31.0845    7.4594   64.5063 C   0  0  0  0  0  0  0  0  0  0  0  0
   31.2109    8.5868   65.4698 C   0  0  0  0  0  0  0  0  0  0  0  0
   31.1264    9.9071   65.0251 C   0  0  0  0  0  0  0  0  0  0  0  0
   31.3894    8.3360   66.8296 C   0  0  0  0  0  0  0  0  0  0  0  0
   31.2333   10.9407   65.9786 C   0  0  0  0  0  0  0  0  0  0  0  0
   31.4950    9.4311   67.7066 C   0  0  0  0  0  0  0  0  0  0  0  0
   31.3921   10.7194   67.2965 N   0  0  0  0  0  0  0  0  0  0  0  0
  1  2  1  0
  2  3  2  0
  2  4  1  0
  3  5  1  0
  3  6  1  0
  4  7  1  0
  4  8  2  0
  6  9  2  0
  7 10  2  0
  7 11  1  0
 10 12  1  0
 11 13  2  0
 12 14  1  0
 12 15  2  0
 13 16  1  0
 14 17  1  0
 15 18  1  0
 16 19  1  0
 19 20  1  0
 20 21  2  0
 20 22  1  0
 21 23  1  0
 22 24  2  0
 23 25  2  0
  8  9  1  0
 13 14  1  0
 17 18  2  0
 24 25  1  0
M  END
>  <Molecule Name>  (31) 
CVYWYUAQFJMLEO-UHFFFAOYNA-N

>  <hs_clash>  (31) 
0.0

>  <hs_total>  (31) 
157.35450923016498

>  <Total Molweight>  (31) 
370.242

>  <cLogP>  (31) 
2.9401

>  <H-Acceptors>  (31) 
5

>  <H-Donors>  (31) 
1

>  <Polar Surface Area>  (31) 
55.11

>  <Non-H Atoms>  (31) 
25

>  <sp3-Atoms>  (31) 
1

$$$$
FZWJCGAXJODLPL-YHSKDTNENA-N
     RDKit          3D

 22 23  0  0  0  0  0  0  0  0999 V2000
   31.9898   10.8810   68.9401 Cl  0  0  0  0  0  0  0  0  0  0  0  0
   31.5763    9.7926   67.6763 C   0  0  0  0  0  0  0  0  0  0  0  0
   31.0590    8.5991   68.0411 N   0  0  0  0  0  0  0  0  0  0  0  0
   31.7965   10.1985   66.3990 N   0  0  0  0  0  0  0  0  0  0  0  0
   30.7429    7.7474   67.0238 C   0  0  0  0  0  0  0  0  0  0  0  0
   31.4621    9.3078   65.4148 C   0  0  0  0  0  0  0  0  0  0  0  0
   30.9258    8.0490   65.6648 C   0  0  0  0  0  0  0  0  0  0  0  0
   30.5666    7.0882   64.5631 C   0  0  0  0  0  0  0  0  0  0  0  0
   29.3719    6.3012   64.9639 N   0  0  0  0  0  0  0  0  0  0  0  0
   28.1686    6.5793   64.5716 C   0  0  0  0  0  0  0  0  0  0  0  0
   27.1548    5.5652   64.5686 C   0  0  0  0  0  0  0  0  0  0  0  0
   27.8310    7.9039   64.1472 C   0  0  0  0  0  0  0  0  0  0  0  0
   27.4207    4.2850   64.9970 C   0  0  0  0  0  0  0  0  0  0  0  0
   25.8298    5.8939   64.1172 C   0  0  0  0  0  0  0  0  0  0  0  0
   26.5290    8.2297   63.7168 C   0  0  0  0  0  0  0  0  0  0  0  0
   28.2614    4.0851   65.8660 O   0  0  0  0  0  0  0  0  0  0  0  0
   26.7117    3.2326   64.5031 N   0  0  0  0  0  0  0  0  0  0  0  0
   25.4959    7.2143   63.6838 C   0  0  0  0  0  0  0  0  0  0  0  0
   26.2464    9.8549   63.2557 Cl  0  0  0  0  0  0  0  0  0  0  0  0
   24.2831    7.4554   63.2845 N   0  0  0  0  0  0  0  0  0  0  0  0
   24.0136    8.4016   62.4061 O   0  0  0  0  0  0  0  0  0  0  0  0
   23.2876    6.7292   63.7154 O   0  0  0  0  0  0  0  0  0  0  0  0
  1  2  1  0
  2  3  2  0
  2  4  1  0
  3  5  1  0
  4  6  2  0
  5  7  2  0
  7  8  1  0
  8  9  1  0
  9 10  1  0
 10 11  2  0
 10 12  1  0
 11 13  1  0
 11 14  1  0
 12 15  2  0
 13 16  2  0
 13 17  1  0
 14 18  2  0
 15 19  1  0
 18 20  1  0
 20 21  2  0
 20 22  1  0
  6  7  1  0
 15 18  1  0
M  CHG  2  20   1  22  -1
M  END
>  <Molecule Name>  (32) 
FZWJCGAXJODLPL-YHSKDTNENA-N

>  <hs_clash>  (32) 
0.0

>  <hs_total>  (32) 
157.29851739597848

>  <Total Molweight>  (32) 
342.141

>  <cLogP>  (32) 
0.7813

>  <H-Acceptors>  (32) 
8

>  <H-Donors>  (32) 
2

>  <Polar Surface Area>  (32) 
126.72

>  <Non-H Atoms>  (32) 
22

>  <sp3-Atoms>  (32) 
2

$$$$
LHAHDJVJZXCZNC-YGPBECBDNA-N
     RDKit          3D

 21 22  0  0  0  0  0  0  0  0999 V2000
   26.1675    9.8999   63.0877 Cl  0  0  0  0  0  0  0  0  0  0  0  0
   26.4759    8.2894   63.5884 C   0  0  0  0  0  0  0  0  0  0  0  0
   25.4578    7.2612   63.5772 C   0  0  0  0  0  0  0  0  0  0  0  0
   27.7861    7.9969   64.0310 C   0  0  0  0  0  0  0  0  0  0  0  0
   24.2380    7.4745   63.1706 N   0  0  0  0  0  0  0  0  0  0  0  0
   25.8137    5.9622   64.0457 C   0  0  0  0  0  0  0  0  0  0  0  0
   28.1441    6.6918   64.4896 C   0  0  0  0  0  0  0  0  0  0  0  0
   23.2577    6.6544   63.4983 O   0  0  0  0  0  0  0  0  0  0  0  0
   23.9427    8.4797   62.3862 O   0  0  0  0  0  0  0  0  0  0  0  0
   27.1421    5.6661   64.5082 C   0  0  0  0  0  0  0  0  0  0  0  0
   29.3629    6.4366   64.8939 N   0  0  0  0  0  0  0  0  0  0  0  0
   27.4137    4.3982   64.9674 C   0  0  0  0  0  0  0  0  0  0  0  0
   30.5503    7.2116   64.4569 C   0  0  0  0  0  0  0  0  0  0  0  0
   28.2271    4.2236   65.8636 O   0  0  0  0  0  0  0  0  0  0  0  0
   26.7307    3.3359   64.4795 N   0  0  0  0  0  0  0  0  0  0  0  0
   30.8975    8.2432   65.5007 C   0  0  0  0  0  0  0  0  0  0  0  0
   31.4364    9.4881   65.1735 C   0  0  0  0  0  0  0  0  0  0  0  0
   30.7026    8.0335   66.8718 C   0  0  0  0  0  0  0  0  0  0  0  0
   31.7565   10.4468   66.0973 N   0  0  0  0  0  0  0  0  0  0  0  0
   31.0014    8.9514   67.8331 N   0  0  0  0  0  0  0  0  0  0  0  0
   31.5214   10.1295   67.3978 C   0  0  0  0  0  0  0  0  0  0  0  0
  1  2  1  0
  2  3  2  0
  2  4  1  0
  3  5  1  0
  3  6  1  0
  4  7  2  0
  5  8  2  0
  5  9  1  0
  6 10  2  0
  7 11  1  0
 10 12  1  0
 11 13  1  0
 12 14  2  0
 12 15  1  0
 13 16  1  0
 16 17  2  0
 16 18  1  0
 17 19  1  0
 18 20  2  0
 19 21  2  0
  7 10  1  0
 20 21  1  0
M  CHG  2   5   1   9  -1
M  END
>  <Molecule Name>  (33) 
LHAHDJVJZXCZNC-YGPBECBDNA-N

>  <hs_clash>  (33) 
0.0

>  <hs_total>  (33) 
155.45897115591748

>  <Total Molweight>  (33) 
307.696

>  <cLogP>  (33) 
-0.0668

>  <H-Acceptors>  (33) 
8

>  <H-Donors>  (33) 
2

>  <Polar Surface Area>  (33) 
126.72

>  <Non-H Atoms>  (33) 
21

>  <sp3-Atoms>  (33) 
2

$$$$
NWVQKPQYUAHOFK-LILDFLRNNA-N
     RDKit          3D

 22 24  0  0  0  0  0  0  0  0999 V2000
   28.2193    6.8464   64.2867 S   0  0  0  0  0  0  0  0  0  0  0  0
   28.9618    5.8013   65.4112 C   0  0  0  0  0  0  0  0  0  0  0  0
   27.2676    5.5454   63.7198 C   0  0  0  0  0  0  0  0  0  0  0  0
   28.5198    4.5436   65.3818 N   0  0  0  0  0  0  0  0  0  0  0  0
   29.9444    6.1933   66.2831 N   0  0  0  0  0  0  0  0  0  0  0  0
   27.5657    4.3739   64.4434 C   0  0  0  0  0  0  0  0  0  0  0  0
   26.3754    5.7091   62.6911 C   0  0  0  0  0  0  0  0  0  0  0  0
   30.2077    7.6182   66.4811 C   0  0  0  0  0  0  0  0  0  0  0  0
   27.0022    3.1684   64.2606 N   0  0  0  0  0  0  0  0  0  0  0  0
   25.6374    4.6659   62.2293 O   0  0  0  0  0  0  0  0  0  0  0  0
   26.1924    7.0381   62.0051 C   0  0  0  0  0  0  0  0  0  0  0  0
   31.4657    7.9351   66.0680 C   0  0  0  0  0  0  0  0  0  0  0  0
   25.9940    8.2582   62.7521 C   0  0  0  0  0  0  0  0  0  0  0  0
   26.2408    7.0956   60.5800 C   0  0  0  0  0  0  0  0  0  0  0  0
   31.7594    8.2577   64.6597 C   0  0  0  0  0  0  0  0  0  0  0  0
   25.8538    9.5107   62.0772 C   0  0  0  0  0  0  0  0  0  0  0  0
   26.0971    8.3408   59.8957 C   0  0  0  0  0  0  0  0  0  0  0  0
   25.9084    9.5471   60.6236 C   0  0  0  0  0  0  0  0  0  0  0  0
   25.6642   10.7313   62.8128 C   0  0  0  0  0  0  0  0  0  0  0  0
   25.7750   10.8023   59.9428 C   0  0  0  0  0  0  0  0  0  0  0  0
   25.5334   11.9698   62.1135 C   0  0  0  0  0  0  0  0  0  0  0  0
   25.5892   12.0031   60.6890 C   0  0  0  0  0  0  0  0  0  0  0  0
  1  2  1  0
  1  3  1  0
  2  4  2  0
  2  5  1  0
  3  6  2  0
  3  7  1  0
  5  8  1  0
  6  9  1  0
  7 10  2  0
  7 11  1  0
  8 12  1  0
 11 13  2  0
 11 14  1  0
 12 15  2  0
 13 16  1  0
 14 17  2  0
 16 18  2  0
 16 19  1  0
 18 20  1  0
 19 21  2  0
 20 22  2  0
  4  6  1  0
 17 18  1  0
 21 22  1  0
M  END
>  <Molecule Name>  (34) 
NWVQKPQYUAHOFK-LILDFLRNNA-N

>  <hs_clash>  (34) 
0.0

>  <hs_total>  (34) 
154.08907830550208

>  <Total Molweight>  (34) 
309.392

>  <cLogP>  (34) 
3.6878

>  <H-Acceptors>  (34) 
4

>  <H-Donors>  (34) 
2

>  <Polar Surface Area>  (34) 
96.25

>  <Non-H Atoms>  (34) 
22

>  <sp3-Atoms>  (34) 
1

$$$$
JRNJNYBQQYBCLE-VDDAFCAXNA-N
     RDKit          3D

 30 32  0  0  0  0  0  0  0  0999 V2000
   33.3328   10.6330   64.7732 S   0  0  0  0  0  0  0  0  0  0  0  0
   34.1561   10.2756   63.6398 O   0  0  0  0  0  0  0  0  0  0  0  0
   34.1713   10.8992   65.9106 O   0  0  0  0  0  0  0  0  0  0  0  0
   32.3344    9.3069   65.1265 N   0  0  0  0  0  0  0  0  0  0  0  0
   32.3800   12.1342   64.3488 C   0  0  0  0  0  0  0  0  0  0  0  0
   31.5462    9.5548   66.3661 C   0  0  0  0  0  0  0  0  0  0  0  0
   31.4235    9.0007   63.9831 C   0  0  0  0  0  0  0  0  0  0  0  0
   30.8006    8.2650   66.7696 C   0  0  0  0  0  0  0  0  0  0  0  0
   30.6605    7.6912   64.2758 C   0  0  0  0  0  0  0  0  0  0  0  0
   29.8682    7.7885   65.6261 C   0  0  0  0  0  0  0  0  0  0  0  0
   29.3053    6.4875   66.0116 N   0  0  0  0  0  0  0  0  0  0  0  0
   28.2368    6.0877   65.2641 C   0  0  0  0  0  0  0  0  0  0  0  0
   27.9642    4.7504   65.2730 N   0  0  0  0  0  0  0  0  0  0  0  0
   27.4950    6.9798   64.5526 N   0  0  0  0  0  0  0  0  0  0  0  0
   26.9108    4.2594   64.5369 C   0  0  0  0  0  0  0  0  0  0  0  0
   26.4912    6.5697   63.8402 C   0  0  0  0  0  0  0  0  0  0  0  0
   26.6889    2.9328   64.5795 N   0  0  0  0  0  0  0  0  0  0  0  0
   26.1038    5.1734   63.7590 C   0  0  0  0  0  0  0  0  0  0  0  0
   24.9761    4.7788   62.9284 C   0  0  0  0  0  0  0  0  0  0  0  0
   24.6015    3.5940   62.8897 O   0  0  0  0  0  0  0  0  0  0  0  0
   24.2770    5.7429   62.1086 C   0  0  0  0  0  0  0  0  0  0  0  0
   22.9100    6.0756   62.4181 C   0  0  0  0  0  0  0  0  0  0  0  0
   24.9337    6.3971   60.9721 C   0  0  0  0  0  0  0  0  0  0  0  0
   22.2823    5.4981   63.4386 F   0  0  0  0  0  0  0  0  0  0  0  0
   22.2011    7.0338   61.6285 C   0  0  0  0  0  0  0  0  0  0  0  0
   26.2719    6.0548   60.6762 O   0  0  0  0  0  0  0  0  0  0  0  0
   24.1845    7.3638   60.1953 C   0  0  0  0  0  0  0  0  0  0  0  0
   20.9488    7.3331   61.9194 F   0  0  0  0  0  0  0  0  0  0  0  0
   22.8353    7.6765   60.5252 C   0  0  0  0  0  0  0  0  0  0  0  0
   26.9685    7.0775   59.9215 C   0  0  0  0  0  0  0  0  0  0  0  0
  1  2  2  0
  1  3  2  0
  1  4  1  0
  1  5  1  0
  4  6  1  0
  4  7  1  0
  6  8  1  0
  7  9  1  0
  8 10  1  0
 10 11  1  0
 11 12  1  0
 12 13  2  0
 12 14  1  0
 13 15  1  0
 14 16  2  0
 15 17  1  0
 15 18  2  0
 18 19  1  0
 19 20  2  0
 19 21  1  0
 21 22  2  0
 21 23  1  0
 22 24  1  0
 22 25  1  0
 23 26  1  0
 23 27  2  0
 25 28  1  0
 25 29  2  0
 26 30  1  0
  9 10  1  0
 16 18  1  0
 27 29  1  0
M  END
>  <Molecule Name>  (35) 
JRNJNYBQQYBCLE-VDDAFCAXNA-N

>  <hs_clash>  (35) 
3.0

>  <hs_total>  (35) 
152.81647601336766

>  <Total Molweight>  (35) 
441.458

>  <cLogP>  (35) 
1.1683

>  <H-Acceptors>  (35) 
9

>  <H-Donors>  (35) 
2

>  <Polar Surface Area>  (35) 
135.89

>  <Non-H Atoms>  (35) 
30

>  <sp3-Atoms>  (35) 
9

$$$$
PAPYICJQRHSQGK-QMLCPYSLNA-N
     RDKit          3D

 14 15  0  0  0  0  0  0  0  0999 V2000
   26.6345    6.8429   60.2724 Cl  0  0  0  0  0  0  0  0  0  0  0  0
   26.5713    8.0502   61.2860 C   0  0  0  0  0  0  0  0  0  0  0  0
   26.1823    9.5450   60.6312 S   0  0  0  0  0  0  0  0  0  0  0  0
   26.8206    7.9370   62.6174 C   0  0  0  0  0  0  0  0  0  0  0  0
   26.3125   10.1822   62.1703 C   0  0  0  0  0  0  0  0  0  0  0  0
   27.1524    6.7747   63.4462 C   0  0  0  0  0  0  0  0  0  0  0  0
   26.6636    9.2336   63.2138 C   0  0  0  0  0  0  0  0  0  0  0  0
   26.0818   11.7681   62.5909 Cl  0  0  0  0  0  0  0  0  0  0  0  0
   26.5608    5.5437   63.3177 N   0  0  0  0  0  0  0  0  0  0  0  0
   28.1639    6.8913   64.4635 C   0  0  0  0  0  0  0  0  0  0  0  0
   26.8718    4.5562   64.1081 C   0  0  0  0  0  0  0  0  0  0  0  0
   28.4703    5.7730   65.2798 C   0  0  0  0  0  0  0  0  0  0  0  0
   27.7848    4.5871   65.0078 N   0  0  0  0  0  0  0  0  0  0  0  0
   26.3013    3.3636   63.8900 N   0  0  0  0  0  0  0  0  0  0  0  0
  1  2  1  0
  2  3  1  0
  2  4  2  0
  3  5  1  0
  4  6  1  0
  4  7  1  0
  5  8  1  0
  6  9  2  0
  6 10  1  0
  9 11  1  0
 10 12  2  0
 11 13  2  0
 11 14  1  0
  5  7  2  0
 12 13  1  0
M  END
>  <Molecule Name>  (36) 
PAPYICJQRHSQGK-QMLCPYSLNA-N

>  <hs_clash>  (36) 
0.0

>  <hs_total>  (36) 
152.33594497973922

>  <Total Molweight>  (36) 
246.121

>  <cLogP>  (36) 
2.9446

>  <H-Acceptors>  (36) 
3

>  <H-Donors>  (36) 
1

>  <Polar Surface Area>  (36) 
80.04

>  <Non-H Atoms>  (36) 
14

>  <sp3-Atoms>  (36) 
0

$$$$
WJRRGYBTGDJBFX-MRHCIZOGNA-O
     RDKit          3D

 26 28  0  0  0  0  0  0  0  0999 V2000
   31.8518   10.7198   64.4071 S   0  0  0  0  0  0  0  0  0  0  0  0
   32.9948   10.3148   63.6168 O   0  0  0  0  0  0  0  0  0  0  0  0
   30.8910   11.6554   63.8971 O   0  0  0  0  0  0  0  0  0  0  0  0
   30.9539    9.2465   64.7524 C   0  0  0  0  0  0  0  0  0  0  0  0
   32.5255   11.2440   65.9244 C   0  0  0  0  0  0  0  0  0  0  0  0
   31.1970    8.5793   65.9250 C   0  0  0  0  0  0  0  0  0  0  0  0
   30.0288    8.7798   63.8508 C   0  0  0  0  0  0  0  0  0  0  0  0
   30.5634    7.3815   66.1619 C   0  0  0  0  0  0  0  0  0  0  0  0
   29.3386    7.6189   64.1199 C   0  0  0  0  0  0  0  0  0  0  0  0
   29.5883    6.9058   65.2993 C   0  0  0  0  0  0  0  0  0  0  0  0
   28.9880    5.6752   65.6100 N   0  0  0  0  0  0  0  0  0  0  0  0
   27.9775    5.0233   64.9990 C   0  0  0  0  0  0  0  0  0  0  0  0
   27.0380    5.5862   64.2034 N   0  0  0  0  0  0  0  0  0  0  0  0
   28.0383    3.7113   65.2948 N   0  0  0  0  0  0  0  0  0  0  0  0
   26.0896    4.7735   63.6966 C   0  0  0  0  0  0  0  0  0  0  0  0
   27.1298    2.9248   64.7123 C   0  0  0  0  0  0  0  0  0  0  0  0
   25.0701    5.3475   62.8347 C   0  0  0  0  0  0  0  0  0  0  0  0
   26.0744    3.4035   63.9606 C   0  0  0  0  0  0  0  0  0  0  0  0
   25.1533    6.5490   62.0841 N   0  0  0  0  0  0  0  0  0  0  0  0
   23.8065    4.8734   62.6341 C   0  0  0  0  0  0  0  0  0  0  0  0
   23.9340    6.6516   61.4334 C   0  0  0  0  0  0  0  0  0  0  0  0
   26.3373    7.3508   61.9029 C   0  0  0  0  0  0  0  0  0  0  0  0
   23.0996    5.6899   61.7890 N   0  0  0  0  0  0  0  0  0  0  0  0
   23.5831    7.7658   60.5015 C   0  0  0  0  0  0  0  0  0  0  0  0
   26.7511    7.2746   60.4130 C   0  0  0  0  0  0  0  0  0  0  0  0
   26.1041    8.7097   62.4813 C   0  0  0  0  0  0  0  0  0  0  0  0
  1  2  2  0
  1  3  2  0
  1  4  1  0
  1  5  1  0
  4  6  2  0
  4  7  1  0
  6  8  1  0
  7  9  2  0
  8 10  2  0
 10 11  1  0
 11 12  1  0
 12 13  2  0
 12 14  1  0
 13 15  1  0
 14 16  2  0
 15 17  1  0
 15 18  2  0
 17 19  1  0
 17 20  2  0
 19 21  1  0
 19 22  1  0
 20 23  1  0
 21 24  1  0
 22 25  1  0
 22 26  1  0
  9 10  1  0
 16 18  1  0
 21 23  2  0
M  CHG  1  23   1
M  END
>  <Molecule Name>  (37) 
WJRRGYBTGDJBFX-MRHCIZOGNA-O

>  <hs_clash>  (37) 
0.0

>  <hs_total>  (37) 
151.3146313767546

>  <Total Molweight>  (37) 
372.472

>  <cLogP>  (37) 
0.1315

>  <H-Acceptors>  (37) 
7

>  <H-Donors>  (37) 
2

>  <Polar Surface Area>  (37) 
99.4

>  <Non-H Atoms>  (37) 
26

>  <sp3-Atoms>  (37) 
6

$$$$
BNCZSQHEMDOHNQ-XRJCTRHONA-N
     RDKit          3D

 33 37  0  0  0  0  0  0  0  0999 V2000
   24.1584    4.1611   63.9753 Br  0  0  0  0  0  0  0  0  0  0  0  0
   26.0428    4.6118   64.4463 C   0  0  0  0  0  0  0  0  0  0  0  0
   26.7140    5.8677   64.0753 C   0  0  0  0  0  0  0  0  0  0  0  0
   26.9012    3.7818   65.1538 C   0  0  0  0  0  0  0  0  0  0  0  0
   26.2956    6.9642   63.3931 N   0  0  0  0  0  0  0  0  0  0  0  0
   27.9224    5.6955   64.5907 N   0  0  0  0  0  0  0  0  0  0  0  0
   28.0864    4.4588   65.2517 N   0  0  0  0  0  0  0  0  0  0  0  0
   27.1927    7.9776   63.2383 C   0  0  0  0  0  0  0  0  0  0  0  0
   28.8558    6.6623   64.4574 C   0  0  0  0  0  0  0  0  0  0  0  0
   26.8189    9.2017   62.4691 C   0  0  0  0  0  0  0  0  0  0  0  0
   28.4891    7.8250   63.7594 C   0  0  0  0  0  0  0  0  0  0  0  0
   30.1034    6.5064   64.9933 N   0  0  0  0  0  0  0  0  0  0  0  0
   27.8192    9.8518   61.7286 C   0  0  0  0  0  0  0  0  0  0  0  0
   25.5001    9.6818   62.4272 C   0  0  0  0  0  0  0  0  0  0  0  0
   31.1922    7.4819   64.8792 C   0  0  0  0  0  0  0  0  0  0  0  0
   27.5234   10.9841   60.9717 C   0  0  0  0  0  0  0  0  0  0  0  0
   25.1990   10.8180   61.6659 C   0  0  0  0  0  0  0  0  0  0  0  0
   31.1833    8.6193   65.8717 C   0  0  0  0  0  0  0  0  0  0  0  0
   26.2155   11.4704   60.9477 C   0  0  0  0  0  0  0  0  0  0  0  0
   31.2618    9.9331   65.3958 C   0  0  0  0  0  0  0  0  0  0  0  0
   31.1230    8.3870   67.2481 C   0  0  0  0  0  0  0  0  0  0  0  0
   25.9304   12.6674   60.1123 C   0  0  0  0  0  0  0  0  0  0  0  0
   31.2609   10.9662   66.2635 N   0  0  0  0  0  0  0  0  0  0  0  0
   31.1251    9.4762   68.1245 C   0  0  0  0  0  0  0  0  0  0  0  0
   26.1733   13.9718   60.5678 C   0  0  0  0  0  0  0  0  0  0  0  0
   25.4247   12.4462   58.8245 C   0  0  0  0  0  0  0  0  0  0  0  0
   31.1929   10.7705   67.5989 C   0  0  0  0  0  0  0  0  0  0  0  0
   25.8908   15.0557   59.7245 C   0  0  0  0  0  0  0  0  0  0  0  0
   25.1435   13.5245   57.9870 C   0  0  0  0  0  0  0  0  0  0  0  0
   25.3757   14.8339   58.4328 C   0  0  0  0  0  0  0  0  0  0  0  0
   25.0632   15.9883   57.5124 C   0  0  0  0  0  0  0  0  0  0  0  0
   25.3303   15.8980   56.3210 O   0  0  0  0  0  0  0  0  0  0  0  0
   24.4897   17.0852   58.0103 N   0  0  0  0  0  0  0  0  0  0  0  0
  1  2  1  0
  2  3  2  0
  2  4  1  0
  3  5  1  0
  3  6  1  0
  4  7  2  0
  5  8  2  0
  6  9  1  0
  8 10  1  0
  8 11  1  0
  9 12  1  0
 10 13  2  0
 10 14  1  0
 12 15  1  0
 13 16  1  0
 14 17  2  0
 15 18  1  0
 16 19  2  0
 18 20  2  0
 18 21  1  0
 19 22  1  0
 20 23  1  0
 21 24  2  0
 22 25  2  0
 22 26  1  0
 23 27  2  0
 25 28  1  0
 26 29  2  0
 28 30  2  0
 30 31  1  0
 31 32  2  0
 31 33  1  0
  6  7  1  0
  9 11  2  0
 17 19  1  0
 24 27  1  0
 29 30  1  0
M  END
>  <Molecule Name>  (38) 
BNCZSQHEMDOHNQ-XRJCTRHONA-N

>  <hs_clash>  (38) 
0.0

>  <hs_total>  (38) 
150.96365864417464

>  <Total Molweight>  (38) 
499.371

>  <cLogP>  (38) 
3.1998

>  <H-Acceptors>  (38) 
7

>  <H-Donors>  (38) 
2

>  <Polar Surface Area>  (38) 
98.2

>  <Non-H Atoms>  (38) 
33

>  <sp3-Atoms>  (38) 
1

$$$$
JDBYILINKOTBAJ-YHSKDTNENA-N
     RDKit          3D

 21 22  0  0  0  0  0  0  0  0999 V2000
   26.1561    9.7863   63.1244 Cl  0  0  0  0  0  0  0  0  0  0  0  0
   26.4975    8.1820   63.6385 C   0  0  0  0  0  0  0  0  0  0  0  0
   25.4955    7.1411   63.6276 C   0  0  0  0  0  0  0  0  0  0  0  0
   27.8164    7.8969   64.0917 C   0  0  0  0  0  0  0  0  0  0  0  0
   24.2784    7.3404   63.2205 N   0  0  0  0  0  0  0  0  0  0  0  0
   25.8645    5.8425   64.0933 C   0  0  0  0  0  0  0  0  0  0  0  0
   28.1843    6.5864   64.5544 C   0  0  0  0  0  0  0  0  0  0  0  0
   23.9861    8.2568   62.3283 O   0  0  0  0  0  0  0  0  0  0  0  0
   23.2985    6.5973   63.6744 O   0  0  0  0  0  0  0  0  0  0  0  0
   27.1894    5.5535   64.5583 C   0  0  0  0  0  0  0  0  0  0  0  0
   29.3972    6.3336   64.9711 N   0  0  0  0  0  0  0  0  0  0  0  0
   27.4677    4.2836   65.0035 C   0  0  0  0  0  0  0  0  0  0  0  0
   30.5823    7.1646   64.6151 C   0  0  0  0  0  0  0  0  0  0  0  0
   28.3138    4.0893   65.8674 O   0  0  0  0  0  0  0  0  0  0  0  0
   26.7670    3.2240   64.4980 N   0  0  0  0  0  0  0  0  0  0  0  0
   30.8600    8.1754   65.7033 C   0  0  0  0  0  0  0  0  0  0  0  0
   31.0697    9.5335   65.3901 C   0  0  0  0  0  0  0  0  0  0  0  0
   30.9183    7.7999   67.0729 C   0  0  0  0  0  0  0  0  0  0  0  0
   31.3273   10.4946   66.3424 N   0  0  0  0  0  0  0  0  0  0  0  0
   31.1824    8.7701   68.0750 C   0  0  0  0  0  0  0  0  0  0  0  0
   31.3802   10.0989   67.6625 C   0  0  0  0  0  0  0  0  0  0  0  0
  1  2  1  0
  2  3  2  0
  2  4  1  0
  3  5  1  0
  3  6  1  0
  4  7  2  0
  5  8  2  0
  5  9  1  0
  6 10  2  0
  7 11  1  0
 10 12  1  0
 11 13  1  0
 12 14  2  0
 12 15  1  0
 13 16  1  0
 16 17  2  0
 16 18  1  0
 17 19  1  0
 18 20  2  0
 19 21  2  0
  7 10  1  0
 20 21  1  0
M  CHG  2   5   1   9  -1
M  END
>  <Molecule Name>  (39) 
JDBYILINKOTBAJ-YHSKDTNENA-N

>  <hs_clash>  (39) 
0.0

>  <hs_total>  (39) 
150.26700400741785

>  <Total Molweight>  (39) 
306.708

>  <cLogP>  (39) 
0.4955

>  <H-Acceptors>  (39) 
7

>  <H-Donors>  (39) 
2

>  <Polar Surface Area>  (39) 
113.83

>  <Non-H Atoms>  (39) 
21

>  <sp3-Atoms>  (39) 
2

$$$$
RPJIMTALCNCQLV-DZQCGVKKNA-N
     RDKit          3D

 27 30  0  0  0  0  0  0  0  0999 V2000
   33.5465   10.9473   64.6916 S   0  0  0  0  0  0  0  0  0  0  0  0
   32.9315   12.0864   64.0009 O   0  0  0  0  0  0  0  0  0  0  0  0
   34.6699   10.4450   63.9090 O   0  0  0  0  0  0  0  0  0  0  0  0
   34.0500   11.4024   66.1223 N   0  0  0  0  0  0  0  0  0  0  0  0
   32.3562    9.7039   64.8532 C   0  0  0  0  0  0  0  0  0  0  0  0
   32.0576    9.1854   66.0996 C   0  0  0  0  0  0  0  0  0  0  0  0
   31.6862    9.2380   63.7135 C   0  0  0  0  0  0  0  0  0  0  0  0
   31.1019    8.1808   66.2197 C   0  0  0  0  0  0  0  0  0  0  0  0
   30.7176    8.2483   63.8274 C   0  0  0  0  0  0  0  0  0  0  0  0
   30.3940    7.7343   65.0857 C   0  0  0  0  0  0  0  0  0  0  0  0
   29.5192    6.6933   65.2211 N   0  0  0  0  0  0  0  0  0  0  0  0
   28.3658    6.5036   64.4412 C   0  0  0  0  0  0  0  0  0  0  0  0
   27.7766    5.3029   64.4595 N   0  0  0  0  0  0  0  0  0  0  0  0
   27.7421    7.5579   63.6968 C   0  0  0  0  0  0  0  0  0  0  0  0
   28.1565    4.2105   65.0884 N   0  0  0  0  0  0  0  0  0  0  0  0
   26.6730    5.0512   63.7754 C   0  0  0  0  0  0  0  0  0  0  0  0
   26.5778    7.2377   62.9510 C   0  0  0  0  0  0  0  0  0  0  0  0
   27.2909    3.2209   64.7448 C   0  0  0  0  0  0  0  0  0  0  0  0
   26.0844    5.9750   63.0100 N   0  0  0  0  0  0  0  0  0  0  0  0
   26.3536    3.7677   63.9204 N   0  0  0  0  0  0  0  0  0  0  0  0
   25.8774    8.1715   62.2105 O   0  0  0  0  0  0  0  0  0  0  0  0
   26.5297    9.3635   62.0316 C   0  0  0  0  0  0  0  0  0  0  0  0
   25.9431   10.3838   63.0157 C   0  0  0  0  0  0  0  0  0  0  0  0
   26.2374    9.8293   60.5948 C   0  0  0  0  0  0  0  0  0  0  0  0
   26.5297   11.7798   62.7556 C   0  0  0  0  0  0  0  0  0  0  0  0
   26.8150   11.2256   60.3416 C   0  0  0  0  0  0  0  0  0  0  0  0
   26.2011   12.2210   61.3272 C   0  0  0  0  0  0  0  0  0  0  0  0
  1  2  2  0
  1  3  2  0
  1  4  1  0
  1  5  1  0
  5  6  2  0
  5  7  1  0
  6  8  1  0
  7  9  2  0
  8 10  2  0
 10 11  1  0
 11 12  1  0
 12 13  1  0
 12 14  2  0
 13 15  1  0
 13 16  1  0
 14 17  1  0
 15 18  2  0
 16 19  1  0
 16 20  2  0
 17 21  1  0
 21 22  1  0
 22 23  1  0
 22 24  1  0
 23 25  1  0
 24 26  1  0
 25 27  1  0
  9 10  1  0
 17 19  2  0
 18 20  1  0
 26 27  1  0
M  END
>  <Molecule Name>  (40) 
RPJIMTALCNCQLV-DZQCGVKKNA-N

>  <hs_clash>  (40) 
3.0

>  <hs_total>  (40) 
149.9905007597587

>  <Total Molweight>  (40) 
388.451

>  <cLogP>  (40) 
1.7422

>  <H-Acceptors>  (40) 
9

>  <H-Donors>  (40) 
2

>  <Polar Surface Area>  (40) 
132.88

>  <Non-H Atoms>  (40) 
27

>  <sp3-Atoms>  (40) 
8

$$$$
BKDUVKJYBJDZQW-JFRKDZMVNA-N
     RDKit          3D

 28 31  0  0  0  0  0  0  0  0999 V2000
   32.2293    9.8212   67.6140 S   0  0  0  0  0  0  0  0  0  0  0  0
   32.0729    9.0354   68.8120 O   0  0  0  0  0  0  0  0  0  0  0  0
   31.7336   11.1391   67.8754 O   0  0  0  0  0  0  0  0  0  0  0  0
   33.7848    9.8634   67.2669 N   0  0  0  0  0  0  0  0  0  0  0  0
   31.4020    9.1629   66.4053 C   0  0  0  0  0  0  0  0  0  0  0  0
   30.7374    7.9484   66.5937 C   0  0  0  0  0  0  0  0  0  0  0  0
   31.3340    9.7957   65.1646 C   0  0  0  0  0  0  0  0  0  0  0  0
   30.0089    7.3634   65.5549 C   0  0  0  0  0  0  0  0  0  0  0  0
   30.6167    9.2234   64.1136 C   0  0  0  0  0  0  0  0  0  0  0  0
   29.3873    6.1705   65.7923 N   0  0  0  0  0  0  0  0  0  0  0  0
   29.9593    8.0071   64.3081 C   0  0  0  0  0  0  0  0  0  0  0  0
   28.2446    5.7410   65.1962 C   0  0  0  0  0  0  0  0  0  0  0  0
   27.4733    6.6162   64.4948 N   0  0  0  0  0  0  0  0  0  0  0  0
   27.8804    4.4317   65.3270 N   0  0  0  0  0  0  0  0  0  0  0  0
   26.3304    6.2554   63.8610 C   0  0  0  0  0  0  0  0  0  0  0  0
   26.7402    3.9917   64.7345 C   0  0  0  0  0  0  0  0  0  0  0  0
   25.5760    7.1580   63.1511 O   0  0  0  0  0  0  0  0  0  0  0  0
   25.8927    4.8551   63.9673 C   0  0  0  0  0  0  0  0  0  0  0  0
   26.2122    2.7207   64.7392 N   0  0  0  0  0  0  0  0  0  0  0  0
   25.8878    8.5403   63.2900 C   0  0  0  0  0  0  0  0  0  0  0  0
   24.8205    4.1331   63.4913 N   0  0  0  0  0  0  0  0  0  0  0  0
   25.0606    2.8636   63.9815 C   0  0  0  0  0  0  0  0  0  0  0  0
   25.1632    9.3156   62.2100 C   0  0  0  0  0  0  0  0  0  0  0  0
   25.5223   10.8000   62.3446 C   0  0  0  0  0  0  0  0  0  0  0  0
   25.5880    8.7839   60.8422 C   0  0  0  0  0  0  0  0  0  0  0  0
   24.8478   11.6035   61.2245 C   0  0  0  0  0  0  0  0  0  0  0  0
   24.8979    9.5663   59.7288 C   0  0  0  0  0  0  0  0  0  0  0  0
   25.2346   11.0560   59.8500 C   0  0  0  0  0  0  0  0  0  0  0  0
  1  2  2  0
  1  3  2  0
  1  4  1  0
  1  5  1  0
  5  6  2  0
  5  7  1  0
  6  8  1  0
  7  9  2  0
  8 10  1  0
  8 11  2  0
 10 12  1  0
 12 13  2  0
 12 14  1  0
 13 15  1  0
 14 16  2  0
 15 17  1  0
 15 18  2  0
 16 19  1  0
 17 20  1  0
 18 21  1  0
 19 22  1  0
 20 23  1  0
 23 24  1  0
 23 25  1  0
 24 26  1  0
 25 27  1  0
 26 28  1  0
  9 11  1  0
 16 18  1  0
 21 22  2  0
 27 28  1  0
M  END
>  <Molecule Name>  (41) 
BKDUVKJYBJDZQW-JFRKDZMVNA-N

>  <hs_clash>  (41) 
0.0

>  <hs_total>  (41) 
149.53519232049976

>  <Total Molweight>  (41) 
402.478

>  <cLogP>  (41) 
2.6746

>  <H-Acceptors>  (41) 
9

>  <H-Donors>  (41) 
3

>  <Polar Surface Area>  (41) 
144.26

>  <Non-H Atoms>  (41) 
28

>  <sp3-Atoms>  (41) 
9

$$$$
LUCORKWTQSQFFU-VPQZEOPVNA-N
     RDKit          3D

 17 19  0  0  0  0  0  0  0  0999 V2000
   29.2474    7.8863   64.0232 O   0  0  0  0  0  0  0  0  0  0  0  0
   29.8863    7.4371   64.9907 C   0  0  0  0  0  0  0  0  0  0  0  0
   29.5290    6.2536   65.5575 N   0  0  0  0  0  0  0  0  0  0  0  0
   31.0711    8.2117   65.5825 C   0  0  0  0  0  0  0  0  0  0  0  0
   28.5452    5.2466   65.1683 C   0  0  0  0  0  0  0  0  0  0  0  0
   31.7892    9.1134   64.7222 C   0  0  0  0  0  0  0  0  0  0  0  0
   31.4915    8.1281   66.9571 C   0  0  0  0  0  0  0  0  0  0  0  0
   28.5713    3.9138   65.5095 N   0  0  0  0  0  0  0  0  0  0  0  0
   27.4188    5.4914   64.3805 C   0  0  0  0  0  0  0  0  0  0  0  0
   32.8708    9.8944   65.2123 C   0  0  0  0  0  0  0  0  0  0  0  0
   32.5720    8.9099   67.4411 C   0  0  0  0  0  0  0  0  0  0  0  0
   27.4863    3.3322   64.9462 N   0  0  0  0  0  0  0  0  0  0  0  0
   26.7588    4.2757   64.2448 C   0  0  0  0  0  0  0  0  0  0  0  0
   33.2569    9.7896   66.5673 C   0  0  0  0  0  0  0  0  0  0  0  0
   25.4619    3.9796   63.4664 C   0  0  0  0  0  0  0  0  0  0  0  0
   24.3309    5.0034   63.6778 C   0  0  0  0  0  0  0  0  0  0  0  0
   24.8454    4.6350   62.2674 C   0  0  0  0  0  0  0  0  0  0  0  0
  1  2  2  0
  2  3  1  0
  2  4  1  0
  3  5  1  0
  4  6  2  0
  4  7  1  0
  5  8  2  0
  5  9  1  0
  6 10  1  0
  7 11  2  0
  8 12  1  0
  9 13  2  0
 10 14  2  0
 13 15  1  0
 15 16  1  0
 15 17  1  0
 11 14  1  0
 12 13  1  0
 16 17  1  0
M  END
>  <Molecule Name>  (42) 
LUCORKWTQSQFFU-VPQZEOPVNA-N

>  <hs_clash>  (42) 
0.0

>  <hs_total>  (42) 
149.06563344235016

>  <Total Molweight>  (42) 
227.266

>  <cLogP>  (42) 
2.2169

>  <H-Acceptors>  (42) 
4

>  <H-Donors>  (42) 
2

>  <Polar Surface Area>  (42) 
57.78

>  <Non-H Atoms>  (42) 
17

>  <sp3-Atoms>  (42) 
3

$$$$
RLTGDIGMSOHYGA-YHSKDTNENA-N
     RDKit          3D

 21 22  0  0  0  0  0  0  0  0999 V2000
   32.1555   11.2884   68.5324 Cl  0  0  0  0  0  0  0  0  0  0  0  0
   31.7998   10.0850   67.3622 C   0  0  0  0  0  0  0  0  0  0  0  0
   31.4396    8.8267   67.7984 N   0  0  0  0  0  0  0  0  0  0  0  0
   31.8949   10.4398   66.0071 C   0  0  0  0  0  0  0  0  0  0  0  0
   31.1622    7.8773   66.8376 C   0  0  0  0  0  0  0  0  0  0  0  0
   31.6012    9.4426   65.0457 C   0  0  0  0  0  0  0  0  0  0  0  0
   31.2300    8.1416   65.4522 C   0  0  0  0  0  0  0  0  0  0  0  0
   30.9150    7.0847   64.4237 C   0  0  0  0  0  0  0  0  0  0  0  0
   29.6487    6.4030   64.7730 N   0  0  0  0  0  0  0  0  0  0  0  0
   28.4739    6.7219   64.2976 C   0  0  0  0  0  0  0  0  0  0  0  0
   27.4027    5.7627   64.3723 C   0  0  0  0  0  0  0  0  0  0  0  0
   28.2169    8.0101   63.6977 C   0  0  0  0  0  0  0  0  0  0  0  0
   27.5940    4.5122   64.9343 C   0  0  0  0  0  0  0  0  0  0  0  0
   26.1092    6.1019   63.8535 C   0  0  0  0  0  0  0  0  0  0  0  0
   26.9241    8.3304   63.1867 C   0  0  0  0  0  0  0  0  0  0  0  0
   28.4148    4.3452   65.8160 O   0  0  0  0  0  0  0  0  0  0  0  0
   26.8652    3.4374   64.4881 N   0  0  0  0  0  0  0  0  0  0  0  0
   25.8580    7.3760   63.2601 C   0  0  0  0  0  0  0  0  0  0  0  0
   24.6905    7.6582   62.7986 N   0  0  0  0  0  0  0  0  0  0  0  0
   23.6414    6.8998   63.0865 O   0  0  0  0  0  0  0  0  0  0  0  0
   24.5129    8.7020   62.0166 O   0  0  0  0  0  0  0  0  0  0  0  0
  1  2  1  0
  2  3  2  0
  2  4  1  0
  3  5  1  0
  4  6  2  0
  5  7  2  0
  7  8  1  0
  8  9  1  0
  9 10  1  0
 10 11  2  0
 10 12  1  0
 11 13  1  0
 11 14  1  0
 12 15  2  0
 13 16  2  0
 13 17  1  0
 14 18  2  0
 18 19  1  0
 19 20  2  0
 19 21  1  0
  6  7  1  0
 15 18  1  0
M  CHG  2  19   1  21  -1
M  END
>  <Molecule Name>  (43) 
RLTGDIGMSOHYGA-YHSKDTNENA-N

>  <hs_clash>  (43) 
0.0

>  <hs_total>  (43) 
148.94320217922055

>  <Total Molweight>  (43) 
306.708

>  <cLogP>  (43) 
0.5929

>  <H-Acceptors>  (43) 
7

>  <H-Donors>  (43) 
2

>  <Polar Surface Area>  (43) 
113.83

>  <Non-H Atoms>  (43) 
21

>  <sp3-Atoms>  (43) 
2

$$$$
BUXUEPKVOZSCGP-UHFFFAOYNA-N
     RDKit          3D

 24 27  0  0  0  0  0  0  0  0999 V2000
   25.6903   12.4317   62.3211 Br  0  0  0  0  0  0  0  0  0  0  0  0
   25.9771   10.7291   61.5301 C   0  0  0  0  0  0  0  0  0  0  0  0
   26.4110    9.6677   62.3178 C   0  0  0  0  0  0  0  0  0  0  0  0
   25.7084   10.5253   60.1581 C   0  0  0  0  0  0  0  0  0  0  0  0
   26.6083    8.3884   61.7454 C   0  0  0  0  0  0  0  0  0  0  0  0
   25.8926    9.2509   59.5816 C   0  0  0  0  0  0  0  0  0  0  0  0
   27.0758    7.2640   62.6021 C   0  0  0  0  0  0  0  0  0  0  0  0
   26.3556    8.1835   60.3734 C   0  0  0  0  0  0  0  0  0  0  0  0
   26.3544    6.1317   62.6843 N   0  0  0  0  0  0  0  0  0  0  0  0
   28.2679    7.3828   63.3350 C   0  0  0  0  0  0  0  0  0  0  0  0
   26.7904    5.1113   63.4860 C   0  0  0  0  0  0  0  0  0  0  0  0
   28.6798    6.3167   64.1397 C   0  0  0  0  0  0  0  0  0  0  0  0
   27.8973    5.2184   64.2177 N   0  0  0  0  0  0  0  0  0  0  0  0
   26.2243    3.8935   63.7165 C   0  0  0  0  0  0  0  0  0  0  0  0
   29.8777    6.4005   64.9006 N   0  0  0  0  0  0  0  0  0  0  0  0
   28.1045    4.0980   64.8887 N   0  0  0  0  0  0  0  0  0  0  0  0
   27.0661    3.2450   64.6050 C   0  0  0  0  0  0  0  0  0  0  0  0
   31.0071    7.2036   64.4203 C   0  0  0  0  0  0  0  0  0  0  0  0
   31.2541    8.3447   65.3951 C   0  0  0  0  0  0  0  0  0  0  0  0
   31.0264    8.1600   66.7544 C   0  0  0  0  0  0  0  0  0  0  0  0
   31.6973    9.5775   64.9346 C   0  0  0  0  0  0  0  0  0  0  0  0
   31.2264    9.2223   67.6419 C   0  0  0  0  0  0  0  0  0  0  0  0
   31.8981   10.6188   65.8412 C   0  0  0  0  0  0  0  0  0  0  0  0
   31.6536   10.4302   67.1823 N   0  0  0  0  0  0  0  0  0  0  0  0
  1  2  1  0
  2  3  2  0
  2  4  1  0
  3  5  1  0
  4  6  2  0
  5  7  1  0
  5  8  2  0
  7  9  2  0
  7 10  1  0
  9 11  1  0
 10 12  2  0
 11 13  1  0
 11 14  2  0
 12 15  1  0
 13 16  1  0
 14 17  1  0
 15 18  1  0
 18 19  1  0
 19 20  2  0
 19 21  1  0
 20 22  1  0
 21 23  2  0
 22 24  2  0
  6  8  1  0
 12 13  1  0
 16 17  2  0
 23 24  1  0
M  END
>  <Molecule Name>  (44) 
BUXUEPKVOZSCGP-UHFFFAOYNA-N

>  <hs_clash>  (44) 
0.0

>  <hs_total>  (44) 
148.75064107636106

>  <Total Molweight>  (44) 
380.248

>  <cLogP>  (44) 
2.4533

>  <H-Acceptors>  (44) 
5

>  <H-Donors>  (44) 
1

>  <Polar Surface Area>  (44) 
55.11

>  <Non-H Atoms>  (44) 
24

>  <sp3-Atoms>  (44) 
1

$$$$
BKOYUSKBPMSUBK-WRDIIZFPNA-O
     RDKit          3D

 30 33  0  0  0  0  0  0  0  0999 V2000
   25.7647    7.6371   62.1369 S   0  0  0  0  0  0  0  0  0  0  0  0
   24.1401    8.0742   61.7011 C   0  0  0  0  0  0  0  0  0  0  0  0
   25.3247    6.5152   63.3643 C   0  0  0  0  0  0  0  0  0  0  0  0
   23.3196    7.3608   62.4925 N   0  0  0  0  0  0  0  0  0  0  0  0
   23.7513    9.0154   60.6857 N   0  0  0  0  0  0  0  0  0  0  0  0
   26.2113    5.7749   64.1453 C   0  0  0  0  0  0  0  0  0  0  0  0
   23.9147    6.5305   63.3779 C   0  0  0  0  0  0  0  0  0  0  0  0
   24.7535    9.6621   59.8891 C   0  0  0  0  0  0  0  0  0  0  0  0
   27.1616    6.4340   64.8718 N   0  0  0  0  0  0  0  0  0  0  0  0
   26.1636    4.3606   64.1862 C   0  0  0  0  0  0  0  0  0  0  0  0
   23.0829    5.6620   64.3427 C   0  0  0  0  0  0  0  0  0  0  0  0
   28.0459    5.7629   65.6165 C   0  0  0  0  0  0  0  0  0  0  0  0
   25.1500    3.5962   63.4068 C   0  0  0  0  0  0  0  0  0  0  0  0
   27.0818    3.6853   64.9718 C   0  0  0  0  0  0  0  0  0  0  0  0
   28.0111    4.3986   65.6839 N   0  0  0  0  0  0  0  0  0  0  0  0
   29.0464    6.5100   66.4015 N   0  0  0  0  0  0  0  0  0  0  0  0
   24.3775    3.0116   62.8167 N   0  0  0  0  0  0  0  0  0  0  0  0
   29.7307    7.6329   65.8848 C   0  0  0  0  0  0  0  0  0  0  0  0
   30.4636    8.4236   66.7544 C   0  0  0  0  0  0  0  0  0  0  0  0
   29.6678    7.9677   64.4901 C   0  0  0  0  0  0  0  0  0  0  0  0
   31.1606    9.5664   66.2688 C   0  0  0  0  0  0  0  0  0  0  0  0
   30.3525    9.0892   64.0091 C   0  0  0  0  0  0  0  0  0  0  0  0
   31.9451   10.4007   67.2033 N   0  0  0  0  0  0  0  0  0  0  0  0
   31.1036    9.8934   64.8935 C   0  0  0  0  0  0  0  0  0  0  0  0
   31.9029    9.7384   68.4777 C   0  0  0  0  0  0  0  0  0  0  0  0
   31.9362   11.8342   67.3338 C   0  0  0  0  0  0  0  0  0  0  0  0
   33.2602    9.3715   69.0100 C   0  0  0  0  0  0  0  0  0  0  0  0
   33.2332   12.3560   67.8609 C   0  0  0  0  0  0  0  0  0  0  0  0
   34.1344   10.4963   69.1673 N   0  0  0  0  0  0  0  0  0  0  0  0
   34.2754   11.2796   67.9741 C   0  0  0  0  0  0  0  0  0  0  0  0
  1  2  1  0
  1  3  1  0
  2  4  2  0
  2  5  1  0
  3  6  1  0
  3  7  2  0
  5  8  1  0
  6  9  2  0
  6 10  1  0
  7 11  1  0
  9 12  1  0
 10 13  1  0
 10 14  2  0
 12 15  2  0
 12 16  1  0
 13 17  3  0
 16 18  1  0
 18 19  2  0
 18 20  1  0
 19 21  1  0
 20 22  2  0
 21 23  1  0
 21 24  2  0
 23 25  1  0
 23 26  1  0
 25 27  1  0
 26 28  1  0
 27 29  1  0
 28 30  1  0
  4  7  1  0
 14 15  1  0
 22 24  1  0
 29 30  1  0
M  CHG  1  29   1
M  END
>  <Molecule Name>  (45) 
BKOYUSKBPMSUBK-WRDIIZFPNA-O

>  <hs_clash>  (45) 
0.0

>  <hs_total>  (45) 
147.7423361906589

>  <Total Molweight>  (45) 
421.552

>  <cLogP>  (45) 
3.0978

>  <H-Acceptors>  (45) 
8

>  <H-Donors>  (45) 
3

>  <Polar Surface Area>  (45) 
134.61

>  <Non-H Atoms>  (45) 
30

>  <sp3-Atoms>  (45) 
8

$$$$
LDOOUPSIRAPDLT-YAQRNVERNA-N
     RDKit          3D

 21 22  0  0  0  0  0  0  0  0999 V2000
   28.3459    6.9006   64.1388 S   0  0  0  0  0  0  0  0  0  0  0  0
   29.0496    5.8378   65.2899 C   0  0  0  0  0  0  0  0  0  0  0  0
   27.3718    5.5998   63.5746 C   0  0  0  0  0  0  0  0  0  0  0  0
   28.5741    4.5679   65.2629 N   0  0  0  0  0  0  0  0  0  0  0  0
   30.0336    6.2170   66.1794 N   0  0  0  0  0  0  0  0  0  0  0  0
   27.6351    4.4172   64.3144 C   0  0  0  0  0  0  0  0  0  0  0  0
   26.4794    5.7495   62.5319 C   0  0  0  0  0  0  0  0  0  0  0  0
   30.4716    7.6146   66.2821 C   0  0  0  0  0  0  0  0  0  0  0  0
   27.0325    3.2102   64.1269 N   0  0  0  0  0  0  0  0  0  0  0  0
   25.7589    4.6994   62.0990 O   0  0  0  0  0  0  0  0  0  0  0  0
   26.2405    7.0275   61.7871 C   0  0  0  0  0  0  0  0  0  0  0  0
   31.3821    8.0043   65.1405 C   0  0  0  0  0  0  0  0  0  0  0  0
   26.1225    8.2886   62.4692 C   0  0  0  0  0  0  0  0  0  0  0  0
   26.1029    6.9920   60.3639 C   0  0  0  0  0  0  0  0  0  0  0  0
   30.9909    9.0576   64.1695 C   0  0  0  0  0  0  0  0  0  0  0  0
   25.8725    9.5123   61.7588 C   0  0  0  0  0  0  0  0  0  0  0  0
   25.8520    8.1890   59.6407 C   0  0  0  0  0  0  0  0  0  0  0  0
   25.7707   10.6838   62.4134 N   0  0  0  0  0  0  0  0  0  0  0  0
   25.7374    9.4290   60.3206 C   0  0  0  0  0  0  0  0  0  0  0  0
   25.5528   11.7227   61.8311 O   0  0  0  0  0  0  0  0  0  0  0  0
   25.9073   10.7595   63.7401 O   0  0  0  0  0  0  0  0  0  0  0  0
  1  2  1  0
  1  3  1  0
  2  4  2  0
  2  5  1  0
  3  6  2  0
  3  7  1  0
  5  8  1  0
  6  9  1  0
  7 10  2  0
  7 11  1  0
  8 12  1  0
 11 13  2  0
 11 14  1  0
 12 15  2  0
 13 16  1  0
 14 17  2  0
 16 18  1  0
 16 19  2  0
 18 20  2  0
 18 21  1  0
  4  6  1  0
 17 19  1  0
M  CHG  2  18   1  21  -1
M  END
>  <Molecule Name>  (46) 
LDOOUPSIRAPDLT-YAQRNVERNA-N

>  <hs_clash>  (46) 
0.0

>  <hs_total>  (46) 
147.71153273169514

>  <Total Molweight>  (46) 
304.329

>  <cLogP>  (46) 
1.4014

>  <H-Acceptors>  (46) 
7

>  <H-Donors>  (46) 
2

>  <Polar Surface Area>  (46) 
142.07

>  <Non-H Atoms>  (46) 
21

>  <sp3-Atoms>  (46) 
2

$$$$
SIKZOJIFMBUYSK-PDJAEHLQNA-N
     RDKit          3D

 29 32  0  0  0  0  0  0  0  0999 V2000
   32.1450   11.1805   64.9061 S   0  0  0  0  0  0  0  0  0  0  0  0
   33.0653   11.3622   65.9982 O   0  0  0  0  0  0  0  0  0  0  0  0
   32.6716   11.1221   63.5682 O   0  0  0  0  0  0  0  0  0  0  0  0
   31.2183    9.6995   65.1975 C   0  0  0  0  0  0  0  0  0  0  0  0
   30.9201   12.4721   64.9721 C   0  0  0  0  0  0  0  0  0  0  0  0
   31.3161    9.0465   66.4159 C   0  0  0  0  0  0  0  0  0  0  0  0
   30.4219    9.1856   64.1871 C   0  0  0  0  0  0  0  0  0  0  0  0
   30.9872   13.5314   63.9071 C   0  0  0  0  0  0  0  0  0  0  0  0
   30.6087    7.8768   66.6301 C   0  0  0  0  0  0  0  0  0  0  0  0
   29.7144    8.0198   64.3915 C   0  0  0  0  0  0  0  0  0  0  0  0
   29.8005    7.3514   65.6184 C   0  0  0  0  0  0  0  0  0  0  0  0
   29.0438    6.1371   65.8285 N   0  0  0  0  0  0  0  0  0  0  0  0
   27.9086    5.7432   65.2379 C   0  0  0  0  0  0  0  0  0  0  0  0
   27.1301    6.6569   64.6267 N   0  0  0  0  0  0  0  0  0  0  0  0
   27.6642    4.4229   65.2931 N   0  0  0  0  0  0  0  0  0  0  0  0
   26.0223    6.2568   64.0173 C   0  0  0  0  0  0  0  0  0  0  0  0
   26.5194    4.0577   64.7064 C   0  0  0  0  0  0  0  0  0  0  0  0
   25.1732    7.1500   63.3859 O   0  0  0  0  0  0  0  0  0  0  0  0
   25.6595    4.9158   64.0436 C   0  0  0  0  0  0  0  0  0  0  0  0
   25.9860    2.8351   64.6062 N   0  0  0  0  0  0  0  0  0  0  0  0
   25.4989    8.5534   63.4998 C   0  0  0  0  0  0  0  0  0  0  0  0
   24.6231    4.2249   63.5604 N   0  0  0  0  0  0  0  0  0  0  0  0
   24.8327    2.9781   63.9324 C   0  0  0  0  0  0  0  0  0  0  0  0
   24.9632    9.2890   62.3072 C   0  0  0  0  0  0  0  0  0  0  0  0
   25.4880   10.7296   62.3015 C   0  0  0  0  0  0  0  0  0  0  0  0
   25.3195    8.5760   61.0052 C   0  0  0  0  0  0  0  0  0  0  0  0
   25.0240   11.4991   61.0632 C   0  0  0  0  0  0  0  0  0  0  0  0
   24.8412    9.3541   59.7887 C   0  0  0  0  0  0  0  0  0  0  0  0
   25.4009   10.7697   59.7917 C   0  0  0  0  0  0  0  0  0  0  0  0
  1  2  2  0
  1  3  2  0
  1  4  1  0
  1  5  1  0
  4  6  2  0
  4  7  1  0
  5  8  1  0
  6  9  1  0
  7 10  2  0
  9 11  2  0
 11 12  1  0
 12 13  1  0
 13 14  2  0
 13 15  1  0
 14 16  1  0
 15 17  2  0
 16 18  1  0
 16 19  2  0
 17 20  1  0
 18 21  1  0
 19 22  1  0
 20 23  1  0
 21 24  1  0
 24 25  1  0
 24 26  1  0
 25 27  1  0
 26 28  1  0
 27 29  1  0
 10 11  1  0
 17 19  1  0
 22 23  2  0
 28 29  1  0
M  END
>  <Molecule Name>  (47) 
SIKZOJIFMBUYSK-PDJAEHLQNA-N

>  <hs_clash>  (47) 
7.0

>  <hs_total>  (47) 
147.46433120351224

>  <Total Molweight>  (47) 
415.516

>  <cLogP>  (47) 
3.4096

>  <H-Acceptors>  (47) 
8

>  <H-Donors>  (47) 
2

>  <Polar Surface Area>  (47) 
118.24

>  <Non-H Atoms>  (47) 
29

>  <sp3-Atoms>  (47) 
11

$$$$
NORJUSOCNUXTJH-SDRQFZCRNA-N
     RDKit          3D

 24 25  0  0  0  0  0  0  0  0999 V2000
   26.2435    9.9286   63.1795 Cl  0  0  0  0  0  0  0  0  0  0  0  0
   26.5528    8.3011   63.6673 C   0  0  0  0  0  0  0  0  0  0  0  0
   25.5646    7.2485   63.5728 C   0  0  0  0  0  0  0  0  0  0  0  0
   27.8317    8.0185   64.1782 C   0  0  0  0  0  0  0  0  0  0  0  0
   24.3788    7.4467   63.1022 N   0  0  0  0  0  0  0  0  0  0  0  0
   25.9205    5.9331   64.0231 C   0  0  0  0  0  0  0  0  0  0  0  0
   28.1967    6.7136   64.6200 C   0  0  0  0  0  0  0  0  0  0  0  0
   24.1732    8.2916   62.1055 O   0  0  0  0  0  0  0  0  0  0  0  0
   23.3453    6.7741   63.5729 O   0  0  0  0  0  0  0  0  0  0  0  0
   27.2237    5.6524   64.5496 C   0  0  0  0  0  0  0  0  0  0  0  0
   29.3887    6.4885   65.0866 N   0  0  0  0  0  0  0  0  0  0  0  0
   27.5170    4.3696   64.9812 C   0  0  0  0  0  0  0  0  0  0  0  0
   30.5965    7.2645   64.6775 C   0  0  0  0  0  0  0  0  0  0  0  0
   28.3698    4.1866   65.8287 O   0  0  0  0  0  0  0  0  0  0  0  0
   26.8310    3.2910   64.4787 N   0  0  0  0  0  0  0  0  0  0  0  0
   30.8546    8.3811   65.6667 C   0  0  0  0  0  0  0  0  0  0  0  0
   31.1633    9.6890   65.1976 C   0  0  0  0  0  0  0  0  0  0  0  0
   30.7778    8.1314   67.0638 C   0  0  0  0  0  0  0  0  0  0  0  0
   31.3985   10.7429   66.1251 C   0  0  0  0  0  0  0  0  0  0  0  0
   31.0110    9.1833   67.9886 C   0  0  0  0  0  0  0  0  0  0  0  0
   31.6814   11.9563   65.6864 F   0  0  0  0  0  0  0  0  0  0  0  0
   31.3237   10.4892   67.5222 C   0  0  0  0  0  0  0  0  0  0  0  0
   30.9339    8.9480   69.2780 F   0  0  0  0  0  0  0  0  0  0  0  0
   31.5428   11.4694   68.3936 F   0  0  0  0  0  0  0  0  0  0  0  0
  1  2  1  0
  2  3  2  0
  2  4  1  0
  3  5  1  0
  3  6  1  0
  4  7  2  0
  5  8  2  0
  5  9  1  0
  6 10  2  0
  7 11  1  0
 10 12  1  0
 11 13  1  0
 12 14  2  0
 12 15  1  0
 13 16  1  0
 16 17  2  0
 16 18  1  0
 17 19  1  0
 18 20  2  0
 19 21  1  0
 19 22  2  0
 20 23  1  0
 22 24  1  0
  7 10  1  0
 20 22  1  0
M  CHG  2   5   1   9  -1
M  END
>  <Molecule Name>  (48) 
NORJUSOCNUXTJH-SDRQFZCRNA-N

>  <hs_clash>  (48) 
0.0

>  <hs_total>  (48) 
147.3861884432529

>  <Total Molweight>  (48) 
359.690

>  <cLogP>  (48) 
1.7988

>  <H-Acceptors>  (48) 
6

>  <H-Donors>  (48) 
2

>  <Polar Surface Area>  (48) 
100.94

>  <Non-H Atoms>  (48) 
24

>  <sp3-Atoms>  (48) 
2

$$$$
MIDIIMBLQHSLFO-PXPUHDKANA-N
     RDKit          3D

 29 32  0  0  0  0  0  0  0  0999 V2000
   32.5675   10.8381   65.0034 S   0  0  0  0  0  0  0  0  0  0  0  0
   33.4074   11.1880   66.1174 O   0  0  0  0  0  0  0  0  0  0  0  0
   33.1836   10.5113   63.7521 O   0  0  0  0  0  0  0  0  0  0  0  0
   31.6187    9.6245   65.4168 N   0  0  0  0  0  0  0  0  0  0  0  0
   31.4428   12.1645   64.7493 C   0  0  0  0  0  0  0  0  0  0  0  0
   31.0510    8.7487   64.3600 C   0  0  0  0  0  0  0  0  0  0  0  0
   31.3254    9.3359   66.8522 C   0  0  0  0  0  0  0  0  0  0  0  0
   29.6912    8.1871   64.7318 C   0  0  0  0  0  0  0  0  0  0  0  0
   30.8705    7.8838   67.0469 C   0  0  0  0  0  0  0  0  0  0  0  0
   29.6069    7.5934   66.1884 C   0  0  0  0  0  0  0  0  0  0  0  0
   29.3410    6.1872   66.3023 N   0  0  0  0  0  0  0  0  0  0  0  0
   28.2820    5.5432   65.8110 C   0  0  0  0  0  0  0  0  0  0  0  0
   27.3295    6.3279   65.0924 N   0  0  0  0  0  0  0  0  0  0  0  0
   28.1838    4.2528   66.0154 N   0  0  0  0  0  0  0  0  0  0  0  0
   26.3134    5.6986   64.6133 C   0  0  0  0  0  0  0  0  0  0  0  0
   27.0790    3.5962   65.4981 C   0  0  0  0  0  0  0  0  0  0  0  0
   26.0701    4.2133   64.7781 C   0  0  0  0  0  0  0  0  0  0  0  0
   25.3191    6.4662   63.8438 C   0  0  0  0  0  0  0  0  0  0  0  0
   24.8252    3.5336   64.1815 C   0  0  0  0  0  0  0  0  0  0  0  0
   25.2571    7.8201   63.5615 N   0  0  0  0  0  0  0  0  0  0  0  0
   24.1974    5.8902   63.2029 C   0  0  0  0  0  0  0  0  0  0  0  0
   23.9045    4.3849   63.2400 C   0  0  0  0  0  0  0  0  0  0  0  0
   24.1802    8.1544   62.8305 N   0  0  0  0  0  0  0  0  0  0  0  0
   26.2286    8.8351   63.9543 C   0  0  0  0  0  0  0  0  0  0  0  0
   23.5326    7.0456   62.6036 C   0  0  0  0  0  0  0  0  0  0  0  0
   22.2560    7.0029   61.8122 C   0  0  0  0  0  0  0  0  0  0  0  0
   21.6342    5.9552   61.6284 O   0  0  0  0  0  0  0  0  0  0  0  0
   21.9094    8.2097   61.3325 N   0  0  0  0  0  0  0  0  0  0  0  0
   20.7550    8.4724   60.5135 C   0  0  0  0  0  0  0  0  0  0  0  0
  1  2  2  0
  1  3  2  0
  1  4  1  0
  1  5  1  0
  4  6  1  0
  4  7  1  0
  6  8  1  0
  7  9  1  0
  8 10  1  0
 10 11  1  0
 11 12  1  0
 12 13  2  0
 12 14  1  0
 13 15  1  0
 14 16  2  0
 15 17  2  0
 15 18  1  0
 17 19  1  0
 18 20  1  0
 18 21  2  0
 19 22  2  0
 20 23  1  0
 20 24  1  0
 21 25  1  0
 25 26  1  0
 26 27  2  0
 26 28  1  0
 28 29  1  0
  9 10  1  0
 16 17  1  0
 21 22  1  0
 23 25  2  0
M  END
>  <Molecule Name>  (49) 
MIDIIMBLQHSLFO-PXPUHDKANA-N

>  <hs_clash>  (49) 
2.0

>  <hs_total>  (49) 
147.36075884775624

>  <Total Molweight>  (49) 
417.493

>  <cLogP>  (49) 
0.4215

>  <H-Acceptors>  (49) 
10

>  <H-Donors>  (49) 
2

>  <Polar Surface Area>  (49) 
130.49

>  <Non-H Atoms>  (49) 
29

>  <sp3-Atoms>  (49) 
9

$$$$
SMIZFGZXFDGISG-UHFFFAOYNA-N
     RDKit          3D

 24 27  0  0  0  0  0  0  0  0999 V2000
   24.8028    3.3532   63.3224 Br  0  0  0  0  0  0  0  0  0  0  0  0
   26.3769    4.0640   63.9836 C   0  0  0  0  0  0  0  0  0  0  0  0
   26.9264    5.2789   63.6517 C   0  0  0  0  0  0  0  0  0  0  0  0
   27.2644    3.4486   64.8739 C   0  0  0  0  0  0  0  0  0  0  0  0
   26.4365    6.2390   62.7958 N   0  0  0  0  0  0  0  0  0  0  0  0
   28.0875    5.3729   64.3591 N   0  0  0  0  0  0  0  0  0  0  0  0
   28.2985    4.2405   65.1312 N   0  0  0  0  0  0  0  0  0  0  0  0
   27.1618    7.3316   62.6734 C   0  0  0  0  0  0  0  0  0  0  0  0
   28.8766    6.4886   64.2361 C   0  0  0  0  0  0  0  0  0  0  0  0
   26.6716    8.3750   61.7624 C   0  0  0  0  0  0  0  0  0  0  0  0
   28.3878    7.4829   63.3916 C   0  0  0  0  0  0  0  0  0  0  0  0
   30.0439    6.5269   64.9733 N   0  0  0  0  0  0  0  0  0  0  0  0
   26.1277    8.0264   60.5206 C   0  0  0  0  0  0  0  0  0  0  0  0
   26.7682    9.7414   62.0822 C   0  0  0  0  0  0  0  0  0  0  0  0
   31.1022    7.4911   64.6140 C   0  0  0  0  0  0  0  0  0  0  0  0
   25.6598    9.0091   59.6314 C   0  0  0  0  0  0  0  0  0  0  0  0
   26.3152   10.7221   61.1951 C   0  0  0  0  0  0  0  0  0  0  0  0
   31.2444    8.4971   65.7292 C   0  0  0  0  0  0  0  0  0  0  0  0
   25.7494   10.3547   59.9695 C   0  0  0  0  0  0  0  0  0  0  0  0
   31.2118    9.8817   65.4991 C   0  0  0  0  0  0  0  0  0  0  0  0
   31.4216    8.0768   67.0442 C   0  0  0  0  0  0  0  0  0  0  0  0
   31.3310   10.8122   66.4543 N   0  0  0  0  0  0  0  0  0  0  0  0
   31.5627    9.0293   68.0490 C   0  0  0  0  0  0  0  0  0  0  0  0
   31.4969   10.3772   67.7077 C   0  0  0  0  0  0  0  0  0  0  0  0
  1  2  1  0
  2  3  2  0
  2  4  1  0
  3  5  1  0
  3  6  1  0
  4  7  2  0
  5  8  2  0
  6  9  1  0
  8 10  1  0
  8 11  1  0
  9 12  1  0
 10 13  2  0
 10 14  1  0
 12 15  1  0
 13 16  1  0
 14 17  2  0
 15 18  1  0
 16 19  2  0
 18 20  2  0
 18 21  1  0
 20 22  1  0
 21 23  2  0
 22 24  2  0
  6  7  1  0
  9 11  2  0
 17 19  1  0
 23 24  1  0
M  END
>  <Molecule Name>  (50) 
SMIZFGZXFDGISG-UHFFFAOYNA-N

>  <hs_clash>  (50) 
0.0

>  <hs_total>  (50) 
146.535016626623

>  <Total Molweight>  (50) 
380.248

>  <cLogP>  (50) 
2.4533

>  <H-Acceptors>  (50) 
5

>  <H-Donors>  (50) 
1

>  <Polar Surface Area>  (50) 
55.11

>  <Non-H Atoms>  (50) 
24

>  <sp3-Atoms>  (50) 
1

$$$$
DZHBFQMOLIUZMP-HRNBZBKQNA-N
     RDKit          3D

 33 36  0  0  0  0  0  0  0  0999 V2000
   25.8569    7.5208   62.2005 S   0  0  0  0  0  0  0  0  0  0  0  0
   24.2670    7.9792   61.7090 C   0  0  0  0  0  0  0  0  0  0  0  0
   25.3506    6.3792   63.3797 C   0  0  0  0  0  0  0  0  0  0  0  0
   23.3907    7.2550   62.4519 N   0  0  0  0  0  0  0  0  0  0  0  0
   23.9861    8.9407   60.7115 N   0  0  0  0  0  0  0  0  0  0  0  0
   26.2714    5.6206   64.1431 C   0  0  0  0  0  0  0  0  0  0  0  0
   23.9406    6.3973   63.3361 C   0  0  0  0  0  0  0  0  0  0  0  0
   25.0921    9.3515   59.8557 C   0  0  0  0  0  0  0  0  0  0  0  0
   27.3065    6.2563   64.7468 N   0  0  0  0  0  0  0  0  0  0  0  0
   26.1766    4.2290   64.2343 C   0  0  0  0  0  0  0  0  0  0  0  0
   23.0658    5.5362   64.2252 C   0  0  0  0  0  0  0  0  0  0  0  0
   28.2356    5.5585   65.4637 C   0  0  0  0  0  0  0  0  0  0  0  0
   25.0801    3.5054   63.5722 C   0  0  0  0  0  0  0  0  0  0  0  0
   27.1343    3.5335   64.9745 C   0  0  0  0  0  0  0  0  0  0  0  0
   28.1512    4.2235   65.5802 N   0  0  0  0  0  0  0  0  0  0  0  0
   29.3377    6.2673   66.1177 N   0  0  0  0  0  0  0  0  0  0  0  0
   24.2250    2.9446   63.0582 N   0  0  0  0  0  0  0  0  0  0  0  0
   29.8251    7.5485   65.6212 C   0  0  0  0  0  0  0  0  0  0  0  0
   30.6919    8.3131   66.4333 C   0  0  0  0  0  0  0  0  0  0  0  0
   29.4481    8.0269   64.3535 C   0  0  0  0  0  0  0  0  0  0  0  0
   31.1682    9.5431   65.9840 C   0  0  0  0  0  0  0  0  0  0  0  0
   29.9224    9.2585   63.8988 C   0  0  0  0  0  0  0  0  0  0  0  0
   32.0770   10.3244   66.8418 N   0  0  0  0  0  0  0  0  0  0  0  0
   30.7958   10.0232   64.7239 C   0  0  0  0  0  0  0  0  0  0  0  0
   32.8945    9.9777   67.9780 C   0  0  0  0  0  0  0  0  0  0  0  0
   31.7075   11.7082   66.6924 C   0  0  0  0  0  0  0  0  0  0  0  0
   32.1103    9.7841   69.2476 C   0  0  0  0  0  0  0  0  0  0  0  0
   31.8548   12.5402   67.9104 C   0  0  0  0  0  0  0  0  0  0  0  0
   31.6234   11.0312   69.7640 N   0  0  0  0  0  0  0  0  0  0  0  0
   31.0038   12.0888   69.0473 C   0  0  0  0  0  0  0  0  0  0  0  0
   31.7930   11.2420   71.1897 C   0  0  0  0  0  0  0  0  0  0  0  0
   31.4063   12.2884   71.7005 O   0  0  0  0  0  0  0  0  0  0  0  0
   32.4488   10.1770   72.0364 C   0  0  0  0  0  0  0  0  0  0  0  0
  1  2  1  0
  1  3  1  0
  2  4  2  0
  2  5  1  0
  3  6  1  0
  3  7  2  0
  5  8  1  0
  6  9  2  0
  6 10  1  0
  7 11  1  0
  9 12  1  0
 10 13  1  0
 10 14  2  0
 12 15  2  0
 12 16  1  0
 13 17  3  0
 16 18  1  0
 18 19  2  0
 18 20  1  0
 19 21  1  0
 20 22  2  0
 21 23  1  0
 21 24  2  0
 23 25  1  0
 23 26  1  0
 25 27  1  0
 26 28  1  0
 27 29  1  0
 28 30  1  0
 29 31  1  0
 31 32  2  0
 31 33  1  0
  4  7  1  0
 14 15  1  0
 22 24  1  0
 29 30  1  0
M  END
>  <Molecule Name>  (51) 
DZHBFQMOLIUZMP-HRNBZBKQNA-N

>  <hs_clash>  (51) 
19.0

>  <hs_total>  (51) 
146.4712576744633

>  <Total Molweight>  (51) 
462.580

>  <cLogP>  (51) 
3.6685

>  <H-Acceptors>  (51) 
9

>  <H-Donors>  (51) 
2

>  <Polar Surface Area>  (51) 
138.31

>  <Non-H Atoms>  (51) 
33

>  <sp3-Atoms>  (51) 
8

$$$$
DYTKVFHLKPDNRW-HEBYQKOSNA-N
     RDKit          3D

 23 25  0  0  0  0  0  0  0  0999 V2000
   25.4063    6.9394   62.4365 S   0  0  0  0  0  0  0  0  0  0  0  0
   24.1098    6.8281   61.4587 C   0  0  0  0  0  0  0  0  0  0  0  0
   24.9210    5.5734   63.1802 C   0  0  0  0  0  0  0  0  0  0  0  0
   23.3326    5.8004   61.6891 N   0  0  0  0  0  0  0  0  0  0  0  0
   23.8267    7.6964   60.4740 N   0  0  0  0  0  0  0  0  0  0  0  0
   25.8825    4.8913   64.1142 C   0  0  0  0  0  0  0  0  0  0  0  0
   23.7814    5.0754   62.6886 C   0  0  0  0  0  0  0  0  0  0  0  0
   26.9117    5.6398   64.5359 N   0  0  0  0  0  0  0  0  0  0  0  0
   25.8155    3.5432   64.4828 C   0  0  0  0  0  0  0  0  0  0  0  0
   23.0127    3.8633   63.0859 C   0  0  0  0  0  0  0  0  0  0  0  0
   27.9014    5.1054   65.2684 C   0  0  0  0  0  0  0  0  0  0  0  0
   26.8611    3.0145   65.2425 C   0  0  0  0  0  0  0  0  0  0  0  0
   27.8793    3.8086   65.6412 N   0  0  0  0  0  0  0  0  0  0  0  0
   28.8649    5.8970   65.8031 N   0  0  0  0  0  0  0  0  0  0  0  0
   29.3172    7.0672   65.3074 C   0  0  0  0  0  0  0  0  0  0  0  0
   28.6050    7.8395   64.3826 C   0  0  0  0  0  0  0  0  0  0  0  0
   30.5269    7.5227   65.7656 C   0  0  0  0  0  0  0  0  0  0  0  0
   29.1123    9.0573   63.9309 C   0  0  0  0  0  0  0  0  0  0  0  0
   31.0402    8.7398   65.3059 C   0  0  0  0  0  0  0  0  0  0  0  0
   28.2680    9.9155   63.2724 N   0  0  0  0  0  0  0  0  0  0  0  0
   30.3484    9.5165   64.3904 C   0  0  0  0  0  0  0  0  0  0  0  0
   27.0453    9.8169   63.4063 O   0  0  0  0  0  0  0  0  0  0  0  0
   28.7024   11.0073   62.9371 O   0  0  0  0  0  0  0  0  0  0  0  0
  1  2  1  0
  1  3  1  0
  2  4  2  0
  2  5  1  0
  3  6  1  0
  3  7  2  0
  6  8  2  0
  6  9  1  0
  7 10  1  0
  8 11  1  0
  9 12  2  0
 11 13  2  0
 11 14  1  0
 14 15  1  0
 15 16  2  0
 15 17  1  0
 16 18  1  0
 17 19  2  0
 18 20  1  0
 18 21  2  0
 20 22  2  0
 20 23  1  0
  4  7  1  0
 12 13  1  0
 19 21  1  0
M  CHG  2  20   1  23  -1
M  END
>  <Molecule Name>  (52) 
DYTKVFHLKPDNRW-HEBYQKOSNA-N

>  <hs_clash>  (52) 
0.0

>  <hs_total>  (52) 
144.67975439161467

>  <Total Molweight>  (52) 
328.355

>  <cLogP>  (52) 
2.4099

>  <H-Acceptors>  (52) 
8

>  <H-Donors>  (52) 
2

>  <Polar Surface Area>  (52) 
150.78

>  <Non-H Atoms>  (52) 
23

>  <sp3-Atoms>  (52) 
2

$$$$
FWSRAPWAIHFJQW-YHSKDTNENA-N
     RDKit          3D

 22 23  0  0  0  0  0  0  0  0999 V2000
   23.3911    6.6192   63.4240 O   0  0  0  0  0  0  0  0  0  0  0  0
   24.3889    7.3800   62.9986 N   0  0  0  0  0  0  0  0  0  0  0  0
   24.1252    8.3169   62.1238 O   0  0  0  0  0  0  0  0  0  0  0  0
   25.5939    7.1892   63.4200 C   0  0  0  0  0  0  0  0  0  0  0  0
   26.5900    8.2245   63.3513 C   0  0  0  0  0  0  0  0  0  0  0  0
   25.9548    5.9223   63.9661 C   0  0  0  0  0  0  0  0  0  0  0  0
   26.2822    9.4532   62.8312 O   0  0  0  0  0  0  0  0  0  0  0  0
   27.9139    7.9676   63.8249 C   0  0  0  0  0  0  0  0  0  0  0  0
   27.2764    5.6586   64.4436 C   0  0  0  0  0  0  0  0  0  0  0  0
   26.0740   10.5783   63.6517 C   0  0  0  0  0  0  0  0  0  0  0  0
   28.2804    6.6879   64.3774 C   0  0  0  0  0  0  0  0  0  0  0  0
   27.5436    4.4159   64.9517 C   0  0  0  0  0  0  0  0  0  0  0  0
   29.4944    6.4504   64.8147 N   0  0  0  0  0  0  0  0  0  0  0  0
   28.4197    4.2489   65.7700 O   0  0  0  0  0  0  0  0  0  0  0  0
   26.8141    3.3417   64.5220 N   0  0  0  0  0  0  0  0  0  0  0  0
   30.6907    7.2702   64.4769 C   0  0  0  0  0  0  0  0  0  0  0  0
   30.9267    8.3436   65.5205 C   0  0  0  0  0  0  0  0  0  0  0  0
   31.0212    8.0363   66.8927 C   0  0  0  0  0  0  0  0  0  0  0  0
   31.0555    9.7066   65.1455 C   0  0  0  0  0  0  0  0  0  0  0  0
   31.2300    8.9914   67.8658 N   0  0  0  0  0  0  0  0  0  0  0  0
   31.2704   10.7099   66.1252 C   0  0  0  0  0  0  0  0  0  0  0  0
   31.3507   10.3039   67.4662 C   0  0  0  0  0  0  0  0  0  0  0  0
  1  2  2  0
  2  3  1  0
  2  4  1  0
  4  5  2  0
  4  6  1  0
  5  7  1  0
  5  8  1  0
  6  9  2  0
  7 10  1  0
  8 11  2  0
  9 12  1  0
 11 13  1  0
 12 14  2  0
 12 15  1  0
 13 16  1  0
 16 17  1  0
 17 18  2  0
 17 19  1  0
 18 20  1  0
 19 21  2  0
 20 22  2  0
  9 11  1  0
 21 22  1  0
M  CHG  2   2   1   3  -1
M  END
>  <Molecule Name>  (53) 
FWSRAPWAIHFJQW-YHSKDTNENA-N

>  <hs_clash>  (53) 
0.0

>  <hs_total>  (53) 
144.38420468881733

>  <Total Molweight>  (53) 
302.289

>  <cLogP>  (53) 
-0.1805

>  <H-Acceptors>  (53) 
8

>  <H-Donors>  (53) 
2

>  <Polar Surface Area>  (53) 
123.06

>  <Non-H Atoms>  (53) 
22

>  <sp3-Atoms>  (53) 
4

$$$$
FLLZFUOEZYWLNJ-GPQMBLKYNA-N
     RDKit          3D

 24 26  0  0  0  0  0  0  0  0999 V2000
   28.2650    7.1545   63.9249 S   0  0  0  0  0  0  0  0  0  0  0  0
   29.0102    6.1461   65.0941 C   0  0  0  0  0  0  0  0  0  0  0  0
   27.3693    5.7859   63.4142 C   0  0  0  0  0  0  0  0  0  0  0  0
   28.5980    4.8528   65.1096 N   0  0  0  0  0  0  0  0  0  0  0  0
   29.9602    6.6105   65.9545 N   0  0  0  0  0  0  0  0  0  0  0  0
   27.6670    4.6435   64.1600 C   0  0  0  0  0  0  0  0  0  0  0  0
   26.3930    5.8881   62.2760 C   0  0  0  0  0  0  0  0  0  0  0  0
   30.5919    7.9133   65.7159 C   0  0  0  0  0  0  0  0  0  0  0  0
   27.0984    3.4159   63.9711 N   0  0  0  0  0  0  0  0  0  0  0  0
   25.7490    4.7643   61.9358 O   0  0  0  0  0  0  0  0  0  0  0  0
   26.1395    7.0623   61.5714 C   0  0  0  0  0  0  0  0  0  0  0  0
   31.6755    7.8455   64.5509 C   0  0  0  0  0  0  0  0  0  0  0  0
   31.2510    8.4177   67.0369 C   0  0  0  0  0  0  0  0  0  0  0  0
   25.9869    8.2969   62.2300 C   0  0  0  0  0  0  0  0  0  0  0  0
   26.0129    7.0319   60.0416 C   0  0  0  0  0  0  0  0  0  0  0  0
   32.3317    9.2308   64.3145 C   0  0  0  0  0  0  0  0  0  0  0  0
   31.9336    9.8035   66.8260 C   0  0  0  0  0  0  0  0  0  0  0  0
   25.7059    9.6010   61.4991 C   0  0  0  0  0  0  0  0  0  0  0  0
   25.7570    8.1707   59.3053 C   0  0  0  0  0  0  0  0  0  0  0  0
   32.9581    9.7817   65.6460 C   0  0  0  0  0  0  0  0  0  0  0  0
   25.5776   10.7144   62.1525 N   0  0  0  0  0  0  0  0  0  0  0  0
   25.5913    9.4964   59.9822 C   0  0  0  0  0  0  0  0  0  0  0  0
   25.3509   11.7630   61.5937 O   0  0  0  0  0  0  0  0  0  0  0  0
   25.6908   10.7720   63.4835 O   0  0  0  0  0  0  0  0  0  0  0  0
  1  2  1  0
  1  3  1  0
  2  4  2  0
  2  5  1  0
  3  6  2  0
  3  7  1  0
  5  8  1  0
  6  9  1  0
  7 10  2  0
  7 11  1  0
  8 12  1  0
  8 13  1  0
 11 14  2  0
 11 15  1  0
 12 16  1  0
 13 17  1  0
 14 18  1  0
 15 19  2  0
 16 20  1  0
 18 21  1  0
 18 22  2  0
 21 23  2  0
 21 24  1  0
  4  6  1  0
 17 20  1  0
 19 22  1  0
M  CHG  2  21   1  24  -1
M  END
>  <Molecule Name>  (54) 
FLLZFUOEZYWLNJ-GPQMBLKYNA-N

>  <hs_clash>  (54) 
0.0

>  <hs_total>  (54) 
143.44741481400482

>  <Total Molweight>  (54) 
346.410

>  <cLogP>  (54) 
2.2819

>  <H-Acceptors>  (54) 
7

>  <H-Donors>  (54) 
2

>  <Polar Surface Area>  (54) 
142.07

>  <Non-H Atoms>  (54) 
24

>  <sp3-Atoms>  (54) 
7

$$$$
SNLPJNPAVMWTGI-NNOLMGNNNA-O
     RDKit          3D

 20 22  0  0  0  0  0  0  0  0999 V2000
   27.8731    7.6691   64.5389 O   0  0  0  0  0  0  0  0  0  0  0  0
   28.8128    7.2496   65.2118 C   0  0  0  0  0  0  0  0  0  0  0  0
   28.8887    5.9661   65.6399 N   0  0  0  0  0  0  0  0  0  0  0  0
   29.8409    8.1666   65.5563 C   0  0  0  0  0  0  0  0  0  0  0  0
   27.8922    4.9014   65.3996 C   0  0  0  0  0  0  0  0  0  0  0  0
   30.2386    8.3741   66.9394 C   0  0  0  0  0  0  0  0  0  0  0  0
   30.5132    8.9337   64.5254 C   0  0  0  0  0  0  0  0  0  0  0  0
   28.0182    3.5884   65.8487 N   0  0  0  0  0  0  0  0  0  0  0  0
   26.5884    4.8877   64.6896 C   0  0  0  0  0  0  0  0  0  0  0  0
   31.2700    9.3127   67.2726 C   0  0  0  0  0  0  0  0  0  0  0  0
   31.5445    9.8717   64.8657 C   0  0  0  0  0  0  0  0  0  0  0  0
   27.0946    2.9089   65.5372 N   0  0  0  0  0  0  0  0  0  0  0  0
   26.1764    3.6557   64.8177 C   0  0  0  0  0  0  0  0  0  0  0  0
   25.6964    5.7924   63.9441 C   0  0  0  0  0  0  0  0  0  0  0  0
   31.9227   10.0622   66.2386 C   0  0  0  0  0  0  0  0  0  0  0  0
   24.8670    3.4438   64.1619 C   0  0  0  0  0  0  0  0  0  0  0  0
   24.6104    4.8146   63.6307 N   0  0  0  0  0  0  0  0  0  0  0  0
   23.4919    5.1499   62.9265 C   0  0  0  0  0  0  0  0  0  0  0  0
   22.6098    4.3302   62.6810 O   0  0  0  0  0  0  0  0  0  0  0  0
   23.3166    6.5849   62.4220 C   0  0  0  0  0  0  0  0  0  0  0  0
  1  2  2  0
  2  3  1  0
  2  4  1  0
  3  5  2  0
  4  6  2  0
  4  7  1  0
  5  8  1  0
  5  9  1  0
  6 10  1  0
  7 11  2  0
  8 12  2  0
  9 13  1  0
  9 14  2  0
 10 15  2  0
 13 16  2  0
 14 17  1  0
 17 18  1  0
 18 19  2  0
 18 20  1  0
 11 15  1  0
 12 13  1  0
 16 17  1  0
M  CHG  1   3   1
M  END
>  <Molecule Name>  (55) 
SNLPJNPAVMWTGI-NNOLMGNNNA-O

>  <hs_clash>  (55) 
0.0

>  <hs_total>  (55) 
143.3624140524337

>  <Total Molweight>  (55) 
267.267

>  <cLogP>  (55) 
1.11

>  <H-Acceptors>  (55) 
6

>  <H-Donors>  (55) 
1

>  <Polar Surface Area>  (55) 
77.76

>  <Non-H Atoms>  (55) 
20

>  <sp3-Atoms>  (55) 
1

$$$$
OWXORKPNCHJYOF-JFRKDZMVNA-N
     RDKit          3D

 28 31  0  0  0  0  0  0  0  0999 V2000
   32.0334   11.2318   64.8677 S   0  0  0  0  0  0  0  0  0  0  0  0
   32.9579   11.0422   63.7216 O   0  0  0  0  0  0  0  0  0  0  0  0
   32.7876   11.6482   66.0790 O   0  0  0  0  0  0  0  0  0  0  0  0
   31.0159   12.3081   64.5034 N   0  0  0  0  0  0  0  0  0  0  0  0
   31.2877    9.8406   65.1754 C   0  0  0  0  0  0  0  0  0  0  0  0
   30.5875    9.1782   64.1615 C   0  0  0  0  0  0  0  0  0  0  0  0
   31.3317    9.2774   66.4563 C   0  0  0  0  0  0  0  0  0  0  0  0
   29.9459    7.9694   64.4281 C   0  0  0  0  0  0  0  0  0  0  0  0
   30.6868    8.0692   66.7169 C   0  0  0  0  0  0  0  0  0  0  0  0
   29.9856    7.4101   65.7087 C   0  0  0  0  0  0  0  0  0  0  0  0
   29.3775    6.2307   66.0038 N   0  0  0  0  0  0  0  0  0  0  0  0
   28.2547    5.7461   65.4125 C   0  0  0  0  0  0  0  0  0  0  0  0
   27.4288    6.5673   64.6906 N   0  0  0  0  0  0  0  0  0  0  0  0
   27.9731    4.4248   65.5722 N   0  0  0  0  0  0  0  0  0  0  0  0
   26.2905    6.1353   64.0839 C   0  0  0  0  0  0  0  0  0  0  0  0
   26.8496    3.9496   64.9868 C   0  0  0  0  0  0  0  0  0  0  0  0
   25.4682    6.9534   63.3543 O   0  0  0  0  0  0  0  0  0  0  0  0
   25.9500    4.8033   64.2085 C   0  0  0  0  0  0  0  0  0  0  0  0
   26.3449    2.7088   64.9805 N   0  0  0  0  0  0  0  0  0  0  0  0
   25.4697    8.3743   63.4716 C   0  0  0  0  0  0  0  0  0  0  0  0
   24.9543    4.0088   63.7785 N   0  0  0  0  0  0  0  0  0  0  0  0
   25.1994    2.7607   64.2490 C   0  0  0  0  0  0  0  0  0  0  0  0
   25.5597    9.0152   62.0889 C   0  0  0  0  0  0  0  0  0  0  0  0
   24.6845   10.2674   62.0379 C   0  0  0  0  0  0  0  0  0  0  0  0
   25.1123    8.0396   60.9971 C   0  0  0  0  0  0  0  0  0  0  0  0
   24.8103   10.9548   60.6750 C   0  0  0  0  0  0  0  0  0  0  0  0
   25.2286    8.6663   59.6067 C   0  0  0  0  0  0  0  0  0  0  0  0
   24.5146   10.0166   59.4986 C   0  0  0  0  0  0  0  0  0  0  0  0
  1  2  2  0
  1  3  2  0
  1  4  1  0
  1  5  1  0
  5  6  2  0
  5  7  1  0
  6  8  1  0
  7  9  2  0
  8 10  2  0
 10 11  1  0
 11 12  1  0
 12 13  2  0
 12 14  1  0
 13 15  1  0
 14 16  2  0
 15 17  1  0
 15 18  2  0
 16 19  1  0
 17 20  1  0
 18 21  1  0
 19 22  1  0
 20 23  1  0
 23 24  1  0
 23 25  1  0
 24 26  1  0
 25 27  1  0
 26 28  1  0
  9 10  1  0
 16 18  1  0
 21 22  2  0
 27 28  1  0
M  END
>  <Molecule Name>  (56) 
OWXORKPNCHJYOF-JFRKDZMVNA-N

>  <hs_clash>  (56) 
1.0

>  <hs_total>  (56) 
143.02888160740764

>  <Total Molweight>  (56) 
402.478

>  <cLogP>  (56) 
2.6746

>  <H-Acceptors>  (56) 
9

>  <H-Donors>  (56) 
3

>  <Polar Surface Area>  (56) 
144.26

>  <Non-H Atoms>  (56) 
28

>  <sp3-Atoms>  (56) 
9

$$$$
PVTKDXZNSUHUMO-HXTKINSTNA-N
     RDKit          3D

 32 35  0  0  0  0  0  0  0  0999 V2000
   31.7969   15.7223   66.0550 O   0  0  0  0  0  0  0  0  0  0  0  0
   31.5383   15.1931   64.9799 C   0  0  0  0  0  0  0  0  0  0  0  0
   31.8666   13.8957   64.7767 N   0  0  0  0  0  0  0  0  0  0  0  0
   30.8713   15.9932   63.8870 C   0  0  0  0  0  0  0  0  0  0  0  0
   31.6165   13.2163   63.4868 C   0  0  0  0  0  0  0  0  0  0  0  0
   32.4981   13.1146   65.8518 C   0  0  0  0  0  0  0  0  0  0  0  0
   30.6783   17.3646   64.2756 O   0  0  0  0  0  0  0  0  0  0  0  0
   30.8117   11.9464   63.7501 C   0  0  0  0  0  0  0  0  0  0  0  0
   31.6187   11.8618   66.0453 C   0  0  0  0  0  0  0  0  0  0  0  0
   31.5180   11.1517   64.7628 N   0  0  0  0  0  0  0  0  0  0  0  0
   30.9438    9.8708   64.9410 C   0  0  0  0  0  0  0  0  0  0  0  0
   29.9428    9.4032   64.0951 C   0  0  0  0  0  0  0  0  0  0  0  0
   31.4204    9.0418   65.9499 C   0  0  0  0  0  0  0  0  0  0  0  0
   29.3925    8.1295   64.2363 C   0  0  0  0  0  0  0  0  0  0  0  0
   30.8740    7.7721   66.0870 C   0  0  0  0  0  0  0  0  0  0  0  0
   29.8562    7.3055   65.2622 C   0  0  0  0  0  0  0  0  0  0  0  0
   29.3986    6.0160   65.5250 N   0  0  0  0  0  0  0  0  0  0  0  0
   28.3285    5.3086   64.9910 C   0  0  0  0  0  0  0  0  0  0  0  0
   27.3215    5.8544   64.2737 N   0  0  0  0  0  0  0  0  0  0  0  0
   28.3430    4.0094   65.2735 N   0  0  0  0  0  0  0  0  0  0  0  0
   26.3317    5.0550   63.8066 C   0  0  0  0  0  0  0  0  0  0  0  0
   27.3995    3.1805   64.8243 C   0  0  0  0  0  0  0  0  0  0  0  0
   25.2311    5.6297   63.0107 C   0  0  0  0  0  0  0  0  0  0  0  0
   26.3509    3.6637   64.0592 C   0  0  0  0  0  0  0  0  0  0  0  0
   25.2903    6.7856   62.2455 N   0  0  0  0  0  0  0  0  0  0  0  0
   23.9662    5.1275   62.9111 C   0  0  0  0  0  0  0  0  0  0  0  0
   24.0661    6.9327   61.7042 C   0  0  0  0  0  0  0  0  0  0  0  0
   26.4621    7.6453   62.0368 C   0  0  0  0  0  0  0  0  0  0  0  0
   23.2862    5.9423   62.0944 N   0  0  0  0  0  0  0  0  0  0  0  0
   23.6767    8.0639   60.7813 C   0  0  0  0  0  0  0  0  0  0  0  0
   26.8830    7.6187   60.5638 C   0  0  0  0  0  0  0  0  0  0  0  0
   26.1945    9.0822   62.4805 C   0  0  0  0  0  0  0  0  0  0  0  0
  1  2  2  0
  2  3  1  0
  2  4  1  0
  3  5  1  0
  3  6  1  0
  4  7  1  0
  5  8  1  0
  6  9  1  0
  8 10  1  0
 10 11  1  0
 11 12  2  0
 11 13  1  0
 12 14  1  0
 13 15  2  0
 14 16  2  0
 16 17  1  0
 17 18  1  0
 18 19  2  0
 18 20  1  0
 19 21  1  0
 20 22  2  0
 21 23  1  0
 21 24  2  0
 23 25  1  0
 23 26  2  0
 25 27  1  0
 25 28  1  0
 26 29  1  0
 27 30  1  0
 28 31  1  0
 28 32  1  0
  9 10  1  0
 15 16  1  0
 22 24  1  0
 27 29  2  0
M  END
>  <Molecule Name>  (57) 
PVTKDXZNSUHUMO-HXTKINSTNA-N

>  <hs_clash>  (57) 
22.0

>  <hs_total>  (57) 
142.8373689206447

>  <Total Molweight>  (57) 
435.530

>  <cLogP>  (57) 
2.0157

>  <H-Acceptors>  (57) 
9

>  <H-Donors>  (57) 
2

>  <Polar Surface Area>  (57) 
99.41

>  <Non-H Atoms>  (57) 
32

>  <sp3-Atoms>  (57) 
10

$$$$
BYMFSZLMPVZBJV-LNNLXFCONA-N
     RDKit          3D

 29 33  0  0  0  0  0  0  0  0999 V2000
   27.1521   12.6088   61.7127 O   0  0  0  0  0  0  0  0  0  0  0  0
   28.3177   11.7965   61.8818 C   0  0  0  0  0  0  0  0  0  0  0  0
   26.6922   12.6721   60.3588 C   0  0  0  0  0  0  0  0  0  0  0  0
   29.2241   12.3348   63.0008 C   0  0  0  0  0  0  0  0  0  0  0  0
   27.9182   10.3503   62.2115 C   0  0  0  0  0  0  0  0  0  0  0  0
   30.5027   11.4781   63.0739 C   0  0  0  0  0  0  0  0  0  0  0  0
   29.1867    9.5061   62.0807 C   0  0  0  0  0  0  0  0  0  0  0  0
   30.2334   10.0170   62.9980 N   0  0  0  0  0  0  0  0  0  0  0  0
   30.5737    9.2383   64.0996 C   0  0  0  0  0  0  0  0  0  0  0  0
   29.9434    8.0820   64.3579 N   0  0  0  0  0  0  0  0  0  0  0  0
   31.5513    9.6807   64.8865 N   0  0  0  0  0  0  0  0  0  0  0  0
   30.2955    7.3342   65.4184 C   0  0  0  0  0  0  0  0  0  0  0  0
   31.9524    8.9888   65.9557 C   0  0  0  0  0  0  0  0  0  0  0  0
   29.6978    6.1193   65.7516 N   0  0  0  0  0  0  0  0  0  0  0  0
   31.3261    7.7843   66.2539 C   0  0  0  0  0  0  0  0  0  0  0  0
   28.6187    5.4958   65.1133 C   0  0  0  0  0  0  0  0  0  0  0  0
   28.4042    4.2136   65.4149 N   0  0  0  0  0  0  0  0  0  0  0  0
   27.7927    6.1661   64.2070 C   0  0  0  0  0  0  0  0  0  0  0  0
   27.4082    3.5212   64.8694 C   0  0  0  0  0  0  0  0  0  0  0  0
   26.7414    5.4890   63.6095 C   0  0  0  0  0  0  0  0  0  0  0  0
   26.5382    4.1295   63.9552 C   0  0  0  0  0  0  0  0  0  0  0  0
   25.7671    5.8377   62.7013 N   0  0  0  0  0  0  0  0  0  0  0  0
   25.3763    3.6911   63.1761 C   0  0  0  0  0  0  0  0  0  0  0  0
   24.9703    4.7408   62.4498 C   0  0  0  0  0  0  0  0  0  0  0  0
   25.6587    7.1623   62.0721 C   0  0  0  0  0  0  0  0  0  0  0  0
   26.3810    7.1042   60.6983 C   0  0  0  0  0  0  0  0  0  0  0  0
   24.2311    7.5632   61.6746 C   0  0  0  0  0  0  0  0  0  0  0  0
   25.6356    8.1031   59.7679 C   0  0  0  0  0  0  0  0  0  0  0  0
   24.4777    8.6801   60.6336 C   0  0  0  0  0  0  0  0  0  0  0  0
  1  2  1  0
  1  3  1  0
  2  4  1  0
  2  5  1  0
  4  6  1  0
  5  7  1  0
  6  8  1  0
  8  9  1  0
  9 10  2  0
  9 11  1  0
 10 12  1  0
 11 13  2  0
 12 14  1  0
 12 15  2  0
 14 16  1  0
 16 17  2  0
 16 18  1  0
 17 19  1  0
 18 20  2  0
 19 21  2  0
 20 22  1  0
 21 23  1  0
 22 24  1  0
 22 25  1  0
 25 26  1  0
 25 27  1  0
 26 28  1  0
 27 29  1  0
  7  8  1  0
 13 15  1  0
 20 21  1  0
 23 24  2  0
 28 29  1  0
M  END
>  <Molecule Name>  (58) 
BYMFSZLMPVZBJV-LNNLXFCONA-N

>  <hs_clash>  (58) 
0.0

>  <hs_total>  (58) 
142.0121174332588

>  <Total Molweight>  (58) 
392.505

>  <cLogP>  (58) 
3.781

>  <H-Acceptors>  (58) 
7

>  <H-Donors>  (58) 
1

>  <Polar Surface Area>  (58) 
68.1

>  <Non-H Atoms>  (58) 
29

>  <sp3-Atoms>  (58) 
12

$$$$
WQZVTNFUNLTGDW-PKSOQXRJNA-N
     RDKit          3D

 29 31  0  0  0  0  0  0  0  0999 V2000
   32.7649   10.9014   64.7672 S   0  0  0  0  0  0  0  0  0  0  0  0
   33.9093   10.5459   63.8629 O   0  0  0  0  0  0  0  0  0  0  0  0
   33.3482   11.2676   66.1119 O   0  0  0  0  0  0  0  0  0  0  0  0
   31.9162   12.1610   64.1445 N   0  0  0  0  0  0  0  0  0  0  0  0
   31.7755    9.4755   64.9713 C   0  0  0  0  0  0  0  0  0  0  0  0
   32.7689   13.3623   64.0774 C   0  0  0  0  0  0  0  0  0  0  0  0
   30.8521    9.0531   64.0115 C   0  0  0  0  0  0  0  0  0  0  0  0
   31.9773    8.7438   66.1329 C   0  0  0  0  0  0  0  0  0  0  0  0
   32.6547   14.2023   65.3585 C   0  0  0  0  0  0  0  0  0  0  0  0
   30.1031    7.8917   64.2126 C   0  0  0  0  0  0  0  0  0  0  0  0
   31.2411    7.5872   66.3168 C   0  0  0  0  0  0  0  0  0  0  0  0
   33.8039   14.0746   66.2347 O   0  0  0  0  0  0  0  0  0  0  0  0
   30.3060    7.1671   65.3790 C   0  0  0  0  0  0  0  0  0  0  0  0
   34.1555   15.3542   66.7549 C   0  0  0  0  0  0  0  0  0  0  0  0
   29.7036    6.0251   65.6718 N   0  0  0  0  0  0  0  0  0  0  0  0
   28.7002    5.4648   65.0152 C   0  0  0  0  0  0  0  0  0  0  0  0
   27.8947    6.1410   64.1703 N   0  0  0  0  0  0  0  0  0  0  0  0
   28.4931    4.1745   65.3112 N   0  0  0  0  0  0  0  0  0  0  0  0
   26.8849    5.4784   63.5769 C   0  0  0  0  0  0  0  0  0  0  0  0
   27.5077    3.4936   64.7549 C   0  0  0  0  0  0  0  0  0  0  0  0
   26.0759    6.1094   62.6366 C   0  0  0  0  0  0  0  0  0  0  0  0
   26.6739    4.1319   63.8516 C   0  0  0  0  0  0  0  0  0  0  0  0
   26.6224    7.2909   61.5482 S   0  0  0  0  0  0  0  0  0  0  0  0
   24.7348    5.8335   62.3468 C   0  0  0  0  0  0  0  0  0  0  0  0
   25.1096    7.4243   60.7782 C   0  0  0  0  0  0  0  0  0  0  0  0
   24.2378    6.5766   61.3447 N   0  0  0  0  0  0  0  0  0  0  0  0
   23.8990    4.8102   63.1169 C   0  0  0  0  0  0  0  0  0  0  0  0
   24.8543    8.2070   59.8647 O   0  0  0  0  0  0  0  0  0  0  0  0
   22.8303    6.4798   60.9004 C   0  0  0  0  0  0  0  0  0  0  0  0
  1  2  2  0
  1  3  2  0
  1  4  1  0
  1  5  1  0
  4  6  1  0
  5  7  2  0
  5  8  1  0
  6  9  1  0
  7 10  1  0
  8 11  2  0
  9 12  1  0
 10 13  2  0
 12 14  1  0
 13 15  1  0
 15 16  1  0
 16 17  2  0
 16 18  1  0
 17 19  1  0
 18 20  2  0
 19 21  1  0
 19 22  2  0
 21 23  1  0
 21 24  2  0
 23 25  1  0
 24 26  1  0
 24 27  1  0
 25 28  2  0
 26 29  1  0
 11 13  1  0
 20 22  1  0
 25 26  1  0
M  END
>  <Molecule Name>  (59) 
WQZVTNFUNLTGDW-PKSOQXRJNA-N

>  <hs_clash>  (59) 
11.0

>  <hs_total>  (59) 
141.89213714915064

>  <Total Molweight>  (59) 
435.528

>  <cLogP>  (59) 
2.1915

>  <H-Acceptors>  (59) 
9

>  <H-Donors>  (59) 
2

>  <Polar Surface Area>  (59) 
147.2

>  <Non-H Atoms>  (59) 
29

>  <sp3-Atoms>  (59) 
8

$$$$
JNHRQRICVGMRKT-KHCWMJRFNA-N
     RDKit          3D

 22 23  0  0  0  0  0  0  0  0999 V2000
   26.1349    9.7665   63.0681 Cl  0  0  0  0  0  0  0  0  0  0  0  0
   26.4372    8.1666   63.5581 C   0  0  0  0  0  0  0  0  0  0  0  0
   25.4234    7.1367   63.5569 C   0  0  0  0  0  0  0  0  0  0  0  0
   27.7438    7.8804   63.9875 C   0  0  0  0  0  0  0  0  0  0  0  0
   24.1979    7.3409   63.1580 N   0  0  0  0  0  0  0  0  0  0  0  0
   25.7941    5.8386   64.0175 C   0  0  0  0  0  0  0  0  0  0  0  0
   28.1214    6.5862   64.4400 C   0  0  0  0  0  0  0  0  0  0  0  0
   23.3190    6.3736   63.1923 O   0  0  0  0  0  0  0  0  0  0  0  0
   23.7931    8.5007   62.7051 O   0  0  0  0  0  0  0  0  0  0  0  0
   27.1289    5.5515   64.4629 C   0  0  0  0  0  0  0  0  0  0  0  0
   29.3475    6.3461   64.8359 N   0  0  0  0  0  0  0  0  0  0  0  0
   27.4156    4.2837   64.9061 C   0  0  0  0  0  0  0  0  0  0  0  0
   30.5300    7.1692   64.4494 C   0  0  0  0  0  0  0  0  0  0  0  0
   28.2812    4.1034   65.7421 O   0  0  0  0  0  0  0  0  0  0  0  0
   26.7103    3.2141   64.4266 N   0  0  0  0  0  0  0  0  0  0  0  0
   30.7297    8.2830   65.4420 C   0  0  0  0  0  0  0  0  0  0  0  0
   30.7673    9.6231   65.0467 C   0  0  0  0  0  0  0  0  0  0  0  0
   30.8805    8.0686   66.8176 C   0  0  0  0  0  0  0  0  0  0  0  0
   30.9341   10.6661   65.9045 N   0  0  0  0  0  0  0  0  0  0  0  0
   31.0541    9.0804   67.7299 N   0  0  0  0  0  0  0  0  0  0  0  0
   31.0708   10.3447   67.2191 C   0  0  0  0  0  0  0  0  0  0  0  0
   31.2268   11.3049   68.0333 N   0  0  0  0  0  0  0  0  0  0  0  0
  1  2  1  0
  2  3  2  0
  2  4  1  0
  3  5  1  0
  3  6  1  0
  4  7  2  0
  5  8  2  0
  5  9  1  0
  6 10  2  0
  7 11  1  0
 10 12  1  0
 11 13  1  0
 12 14  2  0
 12 15  1  0
 13 16  1  0
 16 17  2  0
 16 18  1  0
 17 19  1  0
 18 20  2  0
 19 21  2  0
 21 22  1  0
  7 10  1  0
 20 21  1  0
M  CHG  2   5   1   9  -1
M  END
>  <Molecule Name>  (60) 
JNHRQRICVGMRKT-KHCWMJRFNA-N

>  <hs_clash>  (60) 
0.0

>  <hs_total>  (60) 
141.81216569979165

>  <Total Molweight>  (60) 
322.711

>  <cLogP>  (60) 
-0.3746

>  <H-Acceptors>  (60) 
9

>  <H-Donors>  (60) 
3

>  <Polar Surface Area>  (60) 
152.74

>  <Non-H Atoms>  (60) 
22

>  <sp3-Atoms>  (60) 
2

$$$$
WQZOOPQQADNJEG-WYUMXYHSNA-N
     RDKit          3D

 18 19  0  0  0  0  0  0  0  0999 V2000
   27.0765    6.1143   63.9951 S   0  0  0  0  0  0  0  0  0  0  0  0
   28.3387    5.3500   64.9348 C   0  0  0  0  0  0  0  0  0  0  0  0
   26.2603    4.6570   64.1884 C   0  0  0  0  0  0  0  0  0  0  0  0
   28.1400    4.0238   65.2566 N   0  0  0  0  0  0  0  0  0  0  0  0
   29.6238    6.0895   65.1849 N   0  0  0  0  0  0  0  0  0  0  0  0
   26.9546    3.7267   64.8630 C   0  0  0  0  0  0  0  0  0  0  0  0
   24.8821    4.3889   63.6161 C   0  0  0  0  0  0  0  0  0  0  0  0
   29.8583    7.3522   64.8519 C   0  0  0  0  0  0  0  0  0  0  0  0
   23.9143    5.5600   63.7422 C   0  0  0  0  0  0  0  0  0  0  0  0
   25.0256    3.9116   62.1559 C   0  0  0  0  0  0  0  0  0  0  0  0
   29.0573    8.0185   64.1996 O   0  0  0  0  0  0  0  0  0  0  0  0
   31.2158    7.9157   65.2071 C   0  0  0  0  0  0  0  0  0  0  0  0
   31.2182    8.8718   66.3538 C   0  0  0  0  0  0  0  0  0  0  0  0
   31.4449    8.3978   67.6233 C   0  0  0  0  0  0  0  0  0  0  0  0
   30.9945   10.2213   66.1466 C   0  0  0  0  0  0  0  0  0  0  0  0
   31.4256    9.2388   68.6579 N   0  0  0  0  0  0  0  0  0  0  0  0
   30.9830   11.0729   67.2510 C   0  0  0  0  0  0  0  0  0  0  0  0
   31.1924   10.5465   68.4981 C   0  0  0  0  0  0  0  0  0  0  0  0
  1  2  1  0
  1  3  1  0
  2  4  2  0
  2  5  1  0
  3  6  2  0
  3  7  1  0
  5  8  1  0
  7  9  1  0
  7 10  1  0
  8 11  2  0
  8 12  1  0
 12 13  1  0
 13 14  2  0
 13 15  1  0
 14 16  1  0
 15 17  2  0
 16 18  2  0
  4  6  1  0
 17 18  1  0
M  END
>  <Molecule Name>  (61) 
WQZOOPQQADNJEG-WYUMXYHSNA-N

>  <hs_clash>  (61) 
0.0

>  <hs_total>  (61) 
140.48274607508608

>  <Total Molweight>  (61) 
261.348

>  <cLogP>  (61) 
2.6988

>  <H-Acceptors>  (61) 
4

>  <H-Donors>  (61) 
1

>  <Polar Surface Area>  (61) 
83.12

>  <Non-H Atoms>  (61) 
18

>  <sp3-Atoms>  (61) 
4

$$$$
JECHSYMSTXETFI-UHFFFAOYNA-N
     RDKit          3D

 24 27  0  0  0  0  0  0  0  0999 V2000
   25.1184    3.9792   63.4400 Br  0  0  0  0  0  0  0  0  0  0  0  0
   26.7061    4.5867   64.0847 C   0  0  0  0  0  0  0  0  0  0  0  0
   27.2984    5.8684   63.9346 C   0  0  0  0  0  0  0  0  0  0  0  0
   27.6378    3.8421   64.9141 C   0  0  0  0  0  0  0  0  0  0  0  0
   26.9410    7.0118   63.2346 N   0  0  0  0  0  0  0  0  0  0  0  0
   28.5062    5.7742   64.6797 N   0  0  0  0  0  0  0  0  0  0  0  0
   28.6533    4.5800   65.2872 N   0  0  0  0  0  0  0  0  0  0  0  0
   27.8320    8.0263   63.2668 C   0  0  0  0  0  0  0  0  0  0  0  0
   29.4234    6.8029   64.6580 C   0  0  0  0  0  0  0  0  0  0  0  0
   27.5044    9.3023   62.5805 C   0  0  0  0  0  0  0  0  0  0  0  0
   29.0680    7.9721   63.9684 C   0  0  0  0  0  0  0  0  0  0  0  0
   30.5817    6.6532   65.3570 N   0  0  0  0  0  0  0  0  0  0  0  0
   26.1781    9.6165   62.2884 C   0  0  0  0  0  0  0  0  0  0  0  0
   28.5305   10.2178   62.2576 C   0  0  0  0  0  0  0  0  0  0  0  0
   31.6280    7.6191   65.1432 C   0  0  0  0  0  0  0  0  0  0  0  0
   25.8689   10.8062   61.6239 C   0  0  0  0  0  0  0  0  0  0  0  0
   28.2085   11.4265   61.6120 C   0  0  0  0  0  0  0  0  0  0  0  0
   31.7316    8.6050   66.2375 C   0  0  0  0  0  0  0  0  0  0  0  0
   26.8659   11.7147   61.3067 C   0  0  0  0  0  0  0  0  0  0  0  0
   31.8755    8.1766   67.5349 C   0  0  0  0  0  0  0  0  0  0  0  0
   31.6918    9.9768   65.9805 C   0  0  0  0  0  0  0  0  0  0  0  0
   32.0089    9.1287   68.5601 C   0  0  0  0  0  0  0  0  0  0  0  0
   31.7956   10.8577   67.0715 C   0  0  0  0  0  0  0  0  0  0  0  0
   31.9549   10.4583   68.3387 N   0  0  0  0  0  0  0  0  0  0  0  0
  1  2  1  0
  2  3  2  0
  2  4  1  0
  3  5  1  0
  3  6  1  0
  4  7  2  0
  5  8  2  0
  6  9  1  0
  8 10  1  0
  8 11  1  0
  9 12  1  0
 10 13  2  0
 10 14  1  0
 12 15  1  0
 13 16  1  0
 14 17  2  0
 15 18  1  0
 16 19  2  0
 18 20  2  0
 18 21  1  0
 20 22  1  0
 21 23  2  0
 22 24  2  0
  6  7  1  0
  9 11  2  0
 17 19  1  0
 23 24  1  0
M  END
>  <Molecule Name>  (62) 
JECHSYMSTXETFI-UHFFFAOYNA-N

>  <hs_clash>  (62) 
0.0

>  <hs_total>  (62) 
139.8797897010047

>  <Total Molweight>  (62) 
380.248

>  <cLogP>  (62) 
2.4533

>  <H-Acceptors>  (62) 
5

>  <H-Donors>  (62) 
1

>  <Polar Surface Area>  (62) 
55.11

>  <Non-H Atoms>  (62) 
24

>  <sp3-Atoms>  (62) 
1

$$$$
NKORVPQBJCGYEC-ZXHLJWNDNA-O
     RDKit          3D

 26 29  0  0  0  0  0  0  0  0999 V2000
   32.9255   10.5984   64.7003 S   0  0  0  0  0  0  0  0  0  0  0  0
   33.4077   11.1414   65.9437 O   0  0  0  0  0  0  0  0  0  0  0  0
   34.0369   10.1735   63.9048 O   0  0  0  0  0  0  0  0  0  0  0  0
   32.1125   11.7216   63.8997 N   0  0  0  0  0  0  0  0  0  0  0  0
   32.0072    9.3087   64.9638 C   0  0  0  0  0  0  0  0  0  0  0  0
   31.0129    8.9558   64.0583 C   0  0  0  0  0  0  0  0  0  0  0  0
   32.2219    8.5102   66.0869 C   0  0  0  0  0  0  0  0  0  0  0  0
   30.2251    7.8224   64.2737 C   0  0  0  0  0  0  0  0  0  0  0  0
   31.4361    7.3786   66.2972 C   0  0  0  0  0  0  0  0  0  0  0  0
   30.4070    7.0402   65.4116 C   0  0  0  0  0  0  0  0  0  0  0  0
   29.6893    5.8500   65.6355 N   0  0  0  0  0  0  0  0  0  0  0  0
   28.5724    5.3436   65.0382 C   0  0  0  0  0  0  0  0  0  0  0  0
   27.8193    6.0223   64.1442 N   0  0  0  0  0  0  0  0  0  0  0  0
   28.1740    4.1122   65.4223 N   0  0  0  0  0  0  0  0  0  0  0  0
   26.6927    5.4752   63.6146 C   0  0  0  0  0  0  0  0  0  0  0  0
   27.0699    3.5335   64.9312 C   0  0  0  0  0  0  0  0  0  0  0  0
   25.8808    6.2441   62.6206 C   0  0  0  0  0  0  0  0  0  0  0  0
   26.2855    4.2108   64.0083 C   0  0  0  0  0  0  0  0  0  0  0  0
   25.8331    7.5926   62.5552 N   0  0  0  0  0  0  0  0  0  0  0  0
   25.0763    5.7349   61.6642 C   0  0  0  0  0  0  0  0  0  0  0  0
   25.0165    7.8826   61.5625 C   0  0  0  0  0  0  0  0  0  0  0  0
   26.4696    8.4980   63.3100 C   0  0  0  0  0  0  0  0  0  0  0  0
   24.5386    6.6883   61.0093 N   0  0  0  0  0  0  0  0  0  0  0  0
   24.7368    9.1912   61.2113 C   0  0  0  0  0  0  0  0  0  0  0  0
   26.2484    9.8416   63.0239 C   0  0  0  0  0  0  0  0  0  0  0  0
   25.3785   10.1669   61.9761 C   0  0  0  0  0  0  0  0  0  0  0  0
  1  2  2  0
  1  3  2  0
  1  4  1  0
  1  5  1  0
  5  6  2  0
  5  7  1  0
  6  8  1  0
  7  9  2  0
  8 10  2  0
 10 11  1  0
 11 12  1  0
 12 13  2  0
 12 14  1  0
 13 15  1  0
 14 16  2  0
 15 17  1  0
 15 18  2  0
 17 19  1  0
 17 20  2  0
 19 21  1  0
 19 22  1  0
 20 23  1  0
 21 24  1  0
 22 25  2  0
 24 26  2  0
  9 10  1  0
 16 18  1  0
 21 23  2  0
 25 26  1  0
M  CHG  1  23   1
M  END
>  <Molecule Name>  (63) 
NKORVPQBJCGYEC-ZXHLJWNDNA-O

>  <hs_clash>  (63) 
2.0

>  <hs_total>  (63) 
139.64753651810005

>  <Total Molweight>  (63) 
367.412

>  <cLogP>  (63) 
-0.4338

>  <H-Acceptors>  (63) 
8

>  <H-Donors>  (63) 
3

>  <Polar Surface Area>  (63) 
124.9

>  <Non-H Atoms>  (63) 
26

>  <sp3-Atoms>  (63) 
1

$$$$
SIJAJBIYANDPCR-UHFFFAOYNA-N
     RDKit          3D

 24 27  0  0  0  0  0  0  0  0999 V2000
   25.7476   12.4614   62.2091 Br  0  0  0  0  0  0  0  0  0  0  0  0
   25.9568   10.7129   61.5160 C   0  0  0  0  0  0  0  0  0  0  0  0
   26.4401    9.7053   62.3431 C   0  0  0  0  0  0  0  0  0  0  0  0
   25.6073   10.4310   60.1851 C   0  0  0  0  0  0  0  0  0  0  0  0
   26.6039    8.4107   61.8520 C   0  0  0  0  0  0  0  0  0  0  0  0
   25.7520    9.1272   59.6793 C   0  0  0  0  0  0  0  0  0  0  0  0
   27.1117    7.3309   62.7520 C   0  0  0  0  0  0  0  0  0  0  0  0
   26.2522    8.1116   60.5115 C   0  0  0  0  0  0  0  0  0  0  0  0
   26.4309    6.1532   62.8444 N   0  0  0  0  0  0  0  0  0  0  0  0
   28.2936    7.5041   63.4926 C   0  0  0  0  0  0  0  0  0  0  0  0
   26.8774    5.1777   63.6720 C   0  0  0  0  0  0  0  0  0  0  0  0
   28.7363    6.4348   64.3035 C   0  0  0  0  0  0  0  0  0  0  0  0
   26.3637    3.9696   63.8977 N   0  0  0  0  0  0  0  0  0  0  0  0
   27.9939    5.3069   64.3613 N   0  0  0  0  0  0  0  0  0  0  0  0
   29.9336    6.5280   65.0422 N   0  0  0  0  0  0  0  0  0  0  0  0
   27.2067    3.3438   64.7583 C   0  0  0  0  0  0  0  0  0  0  0  0
   28.2094    4.2144   65.0517 N   0  0  0  0  0  0  0  0  0  0  0  0
   31.0409    7.3324   64.5446 C   0  0  0  0  0  0  0  0  0  0  0  0
   31.3150    8.4427   65.5278 C   0  0  0  0  0  0  0  0  0  0  0  0
   31.3122    8.1810   66.8926 C   0  0  0  0  0  0  0  0  0  0  0  0
   31.5508    9.7274   65.0787 C   0  0  0  0  0  0  0  0  0  0  0  0
   31.5404    9.2104   67.7939 C   0  0  0  0  0  0  0  0  0  0  0  0
   31.7940   10.7360   66.0043 C   0  0  0  0  0  0  0  0  0  0  0  0
   31.7722   10.4662   67.3442 N   0  0  0  0  0  0  0  0  0  0  0  0
  1  2  1  0
  2  3  2  0
  2  4  1  0
  3  5  1  0
  4  6  2  0
  5  7  1  0
  5  8  2  0
  7  9  2  0
  7 10  1  0
  9 11  1  0
 10 12  2  0
 11 13  2  0
 11 14  1  0
 12 15  1  0
 13 16  1  0
 14 17  1  0
 15 18  1  0
 18 19  1  0
 19 20  2  0
 19 21  1  0
 20 22  1  0
 21 23  2  0
 22 24  2  0
  6  8  1  0
 12 14  1  0
 16 17  2  0
 23 24  1  0
M  END
>  <Molecule Name>  (64) 
SIJAJBIYANDPCR-UHFFFAOYNA-N

>  <hs_clash>  (64) 
0.0

>  <hs_total>  (64) 
139.56764937407218

>  <Total Molweight>  (64) 
381.236

>  <cLogP>  (64) 
2.1503

>  <H-Acceptors>  (64) 
6

>  <H-Donors>  (64) 
1

>  <Polar Surface Area>  (64) 
68

>  <Non-H Atoms>  (64) 
24

>  <sp3-Atoms>  (64) 
1

$$$$
CJQHODVHGDYGJK-BUKGPZPNNA-N
     RDKit          3D

 26 28  0  0  0  0  0  0  0  0999 V2000
   33.2085   10.6252   64.6435 S   0  0  0  0  0  0  0  0  0  0  0  0
   34.2967   10.1233   63.8527 O   0  0  0  0  0  0  0  0  0  0  0  0
   33.7243   11.1425   65.8992 O   0  0  0  0  0  0  0  0  0  0  0  0
   32.4306   11.8445   63.7630 N   0  0  0  0  0  0  0  0  0  0  0  0
   32.1215    9.2768   64.9611 C   0  0  0  0  0  0  0  0  0  0  0  0
   32.2738    8.5158   66.1572 C   0  0  0  0  0  0  0  0  0  0  0  0
   31.1248    8.9464   64.0145 C   0  0  0  0  0  0  0  0  0  0  0  0
   31.4234    7.4128   66.3955 C   0  0  0  0  0  0  0  0  0  0  0  0
   30.2753    7.8463   64.2486 C   0  0  0  0  0  0  0  0  0  0  0  0
   30.4174    7.0613   65.4433 C   0  0  0  0  0  0  0  0  0  0  0  0
   29.6918    6.0291   65.7199 N   0  0  0  0  0  0  0  0  0  0  0  0
   28.7130    5.5083   65.0620 C   0  0  0  0  0  0  0  0  0  0  0  0
   27.6733    6.3647   63.9757 S   0  0  0  0  0  0  0  0  0  0  0  0
   28.4413    4.2337   65.2115 N   0  0  0  0  0  0  0  0  0  0  0  0
   26.7779    4.9207   63.6814 C   0  0  0  0  0  0  0  0  0  0  0  0
   27.3491    3.8876   64.4380 C   0  0  0  0  0  0  0  0  0  0  0  0
   25.6718    4.8023   62.8303 C   0  0  0  0  0  0  0  0  0  0  0  0
   26.9054    2.6978   64.4272 N   0  0  0  0  0  0  0  0  0  0  0  0
   25.0503    3.7406   62.7965 O   0  0  0  0  0  0  0  0  0  0  0  0
   25.2515    5.8600   62.0198 C   0  0  0  0  0  0  0  0  0  0  0  0
   23.8695    6.2456   62.0058 C   0  0  0  0  0  0  0  0  0  0  0  0
   26.1818    6.5818   61.1839 C   0  0  0  0  0  0  0  0  0  0  0  0
   23.4351    7.3282   61.1801 C   0  0  0  0  0  0  0  0  0  0  0  0
   25.7326    7.6568   60.3704 C   0  0  0  0  0  0  0  0  0  0  0  0
   22.1559    7.6861   61.1706 F   0  0  0  0  0  0  0  0  0  0  0  0
   24.3637    8.0296   60.3705 C   0  0  0  0  0  0  0  0  0  0  0  0
  1  2  2  0
  1  3  2  0
  1  4  1  0
  1  5  1  0
  5  6  2  0
  5  7  1  0
  6  8  1  0
  7  9  2  0
  8 10  2  0
 10 11  1  0
 11 12  1  0
 12 13  1  0
 12 14  2  0
 13 15  1  0
 14 16  1  0
 15 17  1  0
 16 18  1  0
 17 19  2  0
 17 20  1  0
 20 21  2  0
 20 22  1  0
 21 23  1  0
 22 24  2  0
 23 25  1  0
 23 26  2  0
  9 10  1  0
 15 16  2  0
 24 26  1  0
M  END
>  <Molecule Name>  (65) 
CJQHODVHGDYGJK-BUKGPZPNNA-N

>  <hs_clash>  (65) 
3.0

>  <hs_total>  (65) 
139.5461227096288

>  <Total Molweight>  (65) 
392.434

>  <cLogP>  (65) 
2.5664

>  <H-Acceptors>  (65) 
7

>  <H-Donors>  (65) 
3

>  <Polar Surface Area>  (65) 
164.79

>  <Non-H Atoms>  (65) 
26

>  <sp3-Atoms>  (65) 
1

$$$$
XOKMDOXIMWIBTG-PAADELDNNA-M
     RDKit          3D

 20 22  0  0  0  0  0  0  0  0999 V2000
   34.6640   11.4619   66.5253 O   0  0  0  0  0  0  0  0  0  0  0  0
   34.0429   10.6881   67.2806 C   0  0  0  0  0  0  0  0  0  0  0  0
   34.2142   10.6247   68.5172 O   0  0  0  0  0  0  0  0  0  0  0  0
   32.9504    9.8027   66.6563 C   0  0  0  0  0  0  0  0  0  0  0  0
   32.6052    9.9458   65.3063 C   0  0  0  0  0  0  0  0  0  0  0  0
   32.2829    8.8794   67.4598 C   0  0  0  0  0  0  0  0  0  0  0  0
   31.5958    9.1534   64.7485 C   0  0  0  0  0  0  0  0  0  0  0  0
   31.2626    8.1002   66.9111 C   0  0  0  0  0  0  0  0  0  0  0  0
   30.9123    8.2284   65.5541 C   0  0  0  0  0  0  0  0  0  0  0  0
   29.7595    7.4243   64.9378 C   0  0  0  0  0  0  0  0  0  0  0  0
   29.0739    7.9259   64.0465 O   0  0  0  0  0  0  0  0  0  0  0  0
   29.4893    6.2433   65.5214 N   0  0  0  0  0  0  0  0  0  0  0  0
   28.5001    5.3972   65.1807 C   0  0  0  0  0  0  0  0  0  0  0  0
   28.5214    4.1106   65.5694 N   0  0  0  0  0  0  0  0  0  0  0  0
   27.3993    5.6195   64.4199 C   0  0  0  0  0  0  0  0  0  0  0  0
   27.5158    3.5395   65.0914 N   0  0  0  0  0  0  0  0  0  0  0  0
   26.7911    4.4246   64.3815 C   0  0  0  0  0  0  0  0  0  0  0  0
   25.4593    3.9889   63.7474 C   0  0  0  0  0  0  0  0  0  0  0  0
   25.0024    4.6271   62.4290 C   0  0  0  0  0  0  0  0  0  0  0  0
   24.3116    5.0127   63.7406 C   0  0  0  0  0  0  0  0  0  0  0  0
  1  2  2  0
  2  3  1  0
  2  4  1  0
  4  5  2  0
  4  6  1  0
  5  7  1  0
  6  8  2  0
  7  9  2  0
  9 10  1  0
 10 11  2  0
 10 12  1  0
 12 13  1  0
 13 14  2  0
 13 15  1  0
 14 16  1  0
 15 17  2  0
 17 18  1  0
 18 19  1  0
 18 20  1  0
  8  9  1  0
 16 17  1  0
 19 20  1  0
M  CHG  1   3  -1
M  END
>  <Molecule Name>  (66) 
XOKMDOXIMWIBTG-PAADELDNNA-M

>  <hs_clash>  (66) 
0.0

>  <hs_total>  (66) 
139.49520702223896

>  <Total Molweight>  (66) 
270.267

>  <cLogP>  (66) 
-0.374

>  <H-Acceptors>  (66) 
6

>  <H-Donors>  (66) 
2

>  <Polar Surface Area>  (66) 
97.91

>  <Non-H Atoms>  (66) 
20

>  <sp3-Atoms>  (66) 
4

$$$$
AMFGILNPFBVREA-PJQSKVNONA-N
     RDKit          3D

 34 37  0  0  0  0  0  0  0  0999 V2000
   32.1724   11.2220   64.7708 S   0  0  0  0  0  0  0  0  0  0  0  0
   33.2220   11.2973   65.7448 O   0  0  0  0  0  0  0  0  0  0  0  0
   32.8090   11.1512   63.4743 O   0  0  0  0  0  0  0  0  0  0  0  0
   31.3282    9.8719   64.9526 C   0  0  0  0  0  0  0  0  0  0  0  0
   31.1765   12.5519   64.9288 C   0  0  0  0  0  0  0  0  0  0  0  0
   31.8283    8.8581   65.7534 C   0  0  0  0  0  0  0  0  0  0  0  0
   30.1049    9.6705   64.3052 C   0  0  0  0  0  0  0  0  0  0  0  0
   31.4436   13.5448   63.8131 C   0  0  0  0  0  0  0  0  0  0  0  0
   31.1238    7.6694   65.9095 C   0  0  0  0  0  0  0  0  0  0  0  0
   29.3954    8.4730   64.4624 C   0  0  0  0  0  0  0  0  0  0  0  0
   30.5901   13.3185   62.6567 N   0  0  0  0  0  0  0  0  0  0  0  0
   29.9063    7.4606   65.2751 C   0  0  0  0  0  0  0  0  0  0  0  0
   30.0305   14.4612   61.9428 C   0  0  0  0  0  0  0  0  0  0  0  0
   29.2932    6.2687   65.4927 N   0  0  0  0  0  0  0  0  0  0  0  0
   30.2682   14.3665   60.4364 C   0  0  0  0  0  0  0  0  0  0  0  0
   28.1109    5.8438   64.9868 C   0  0  0  0  0  0  0  0  0  0  0  0
   31.7198   14.6544   60.0490 C   0  0  0  0  0  0  0  0  0  0  0  0
   27.3907    6.6460   64.1703 N   0  0  0  0  0  0  0  0  0  0  0  0
   27.6841    4.6077   65.3272 N   0  0  0  0  0  0  0  0  0  0  0  0
   32.5856   13.6419   60.5873 O   0  0  0  0  0  0  0  0  0  0  0  0
   26.2043    6.2813   63.6546 C   0  0  0  0  0  0  0  0  0  0  0  0
   26.5165    4.1166   64.8700 C   0  0  0  0  0  0  0  0  0  0  0  0
   25.5091    7.1128   62.8367 O   0  0  0  0  0  0  0  0  0  0  0  0
   25.6855    4.9463   63.9850 C   0  0  0  0  0  0  0  0  0  0  0  0
   25.8613    2.9704   65.0239 N   0  0  0  0  0  0  0  0  0  0  0  0
   25.4115    8.5021   63.1211 C   0  0  0  0  0  0  0  0  0  0  0  0
   24.5938    4.2396   63.6658 N   0  0  0  0  0  0  0  0  0  0  0  0
   24.7113    3.0505   64.3007 C   0  0  0  0  0  0  0  0  0  0  0  0
   25.8139    9.2391   61.8386 C   0  0  0  0  0  0  0  0  0  0  0  0
   25.5402   10.7451   61.9853 C   0  0  0  0  0  0  0  0  0  0  0  0
   25.2649    8.4994   60.5924 C   0  0  0  0  0  0  0  0  0  0  0  0
   24.5554   11.3158   60.9702 C   0  0  0  0  0  0  0  0  0  0  0  0
   24.5546    9.3137   59.5055 C   0  0  0  0  0  0  0  0  0  0  0  0
   24.8602   10.8052   59.5636 C   0  0  0  0  0  0  0  0  0  0  0  0
  1  2  2  0
  1  3  2  0
  1  4  1  0
  1  5  1  0
  4  6  2  0
  4  7  1  0
  5  8  1  0
  6  9  1  0
  7 10  2  0
  8 11  1  0
  9 12  2  0
 11 13  1  0
 12 14  1  0
 13 15  1  0
 14 16  1  0
 15 17  1  0
 16 18  2  0
 16 19  1  0
 17 20  1  0
 18 21  1  0
 19 22  2  0
 21 23  1  0
 21 24  2  0
 22 25  1  0
 23 26  1  0
 24 27  1  0
 25 28  1  0
 26 29  1  0
 29 30  1  0
 29 31  1  0
 30 32  1  0
 31 33  1  0
 32 34  1  0
 10 12  1  0
 22 24  1  0
 27 28  2  0
 33 34  1  0
M  END
>  <Molecule Name>  (67) 
AMFGILNPFBVREA-PJQSKVNONA-N

>  <hs_clash>  (67) 
24.0

>  <hs_total>  (67) 
139.39324447548856

>  <Total Molweight>  (67) 
488.611

>  <cLogP>  (67) 
2.3706

>  <H-Acceptors>  (67) 
10

>  <H-Donors>  (67) 
4

>  <Polar Surface Area>  (67) 
150.5

>  <Non-H Atoms>  (67) 
34

>  <sp3-Atoms>  (67) 
16

$$$$
DEIGLICSSNUYPO-GPQMBLKYNA-N
     RDKit          3D

 23 25  0  0  0  0  0  0  0  0999 V2000
   26.8700    7.4991   61.7418 S   0  0  0  0  0  0  0  0  0  0  0  0
   26.1450    6.0886   62.4342 C   0  0  0  0  0  0  0  0  0  0  0  0
   25.4851    7.7009   60.7656 C   0  0  0  0  0  0  0  0  0  0  0  0
   26.9687    5.3180   63.3580 C   0  0  0  0  0  0  0  0  0  0  0  0
   24.8980    5.8590   61.8707 C   0  0  0  0  0  0  0  0  0  0  0  0
   24.5161    6.8023   60.9125 N   0  0  0  0  0  0  0  0  0  0  0  0
   25.3988    8.8217   59.7868 C   0  0  0  0  0  0  0  0  0  0  0  0
   27.9656    6.0929   63.9350 N   0  0  0  0  0  0  0  0  0  0  0  0
   26.7678    3.9698   63.7071 C   0  0  0  0  0  0  0  0  0  0  0  0
   23.9182    4.7677   62.0711 C   0  0  0  0  0  0  0  0  0  0  0  0
   28.7914    5.4804   64.8694 C   0  0  0  0  0  0  0  0  0  0  0  0
   27.6563    3.4268   64.6766 C   0  0  0  0  0  0  0  0  0  0  0  0
   28.6638    4.1418   65.2663 N   0  0  0  0  0  0  0  0  0  0  0  0
   29.8861    6.1224   65.4731 N   0  0  0  0  0  0  0  0  0  0  0  0
   30.2975    7.4674   65.2619 C   0  0  0  0  0  0  0  0  0  0  0  0
   29.5406    8.4269   64.5239 C   0  0  0  0  0  0  0  0  0  0  0  0
   31.5046    7.8785   65.9138 C   0  0  0  0  0  0  0  0  0  0  0  0
   29.9707    9.7579   64.4818 C   0  0  0  0  0  0  0  0  0  0  0  0
   31.9137    9.2204   65.8417 C   0  0  0  0  0  0  0  0  0  0  0  0
   29.1183   10.7554   63.7341 N   0  0  0  0  0  0  0  0  0  0  0  0
   31.1482   10.1843   65.1318 C   0  0  0  0  0  0  0  0  0  0  0  0
   29.6428   11.7138   63.2092 O   0  0  0  0  0  0  0  0  0  0  0  0
   27.9205   10.5670   63.6750 O   0  0  0  0  0  0  0  0  0  0  0  0
  1  2  1  0
  1  3  1  0
  2  4  1  0
  2  5  2  0
  3  6  2  0
  3  7  1  0
  4  8  2  0
  4  9  1  0
  5 10  1  0
  8 11  1  0
  9 12  2  0
 11 13  2  0
 11 14  1  0
 14 15  1  0
 15 16  2  0
 15 17  1  0
 16 18  1  0
 17 19  2  0
 18 20  1  0
 18 21  2  0
 20 22  2  0
 20 23  1  0
  5  6  1  0
 12 13  1  0
 19 21  1  0
M  CHG  2  20   1  23  -1
M  END
>  <Molecule Name>  (68) 
DEIGLICSSNUYPO-GPQMBLKYNA-N

>  <hs_clash>  (68) 
0.0

>  <hs_total>  (68) 
139.1309994671415

>  <Total Molweight>  (68) 
327.367

>  <cLogP>  (68) 
2.6359

>  <H-Acceptors>  (68) 
7

>  <H-Donors>  (68) 
1

>  <Polar Surface Area>  (68) 
124.76

>  <Non-H Atoms>  (68) 
23

>  <sp3-Atoms>  (68) 
3

$$$$
LQBKAYJFACGUCC-NPVYFSBINA-N
     RDKit          3D

 23 26  0  0  0  0  0  0  0  0999 V2000
   30.7482   13.2944   69.0121 S   0  0  0  0  0  0  0  0  0  0  0  0
   31.4560   11.7143   69.2021 C   0  0  0  0  0  0  0  0  0  0  0  0
   31.2578   13.7677   70.5641 C   0  0  0  0  0  0  0  0  0  0  0  0
   31.3685   10.7174   68.1485 C   0  0  0  0  0  0  0  0  0  0  0  0
   32.0639   11.5890   70.4150 C   0  0  0  0  0  0  0  0  0  0  0  0
   31.9460   12.7902   71.2125 C   0  0  0  0  0  0  0  0  0  0  0  0
   31.1025   11.1152   66.8130 C   0  0  0  0  0  0  0  0  0  0  0  0
   31.5826    9.3314   68.4268 C   0  0  0  0  0  0  0  0  0  0  0  0
   31.0640   10.1827   65.7701 C   0  0  0  0  0  0  0  0  0  0  0  0
   31.5520    8.4058   67.3709 C   0  0  0  0  0  0  0  0  0  0  0  0
   31.3089    8.8197   66.0602 C   0  0  0  0  0  0  0  0  0  0  0  0
   31.3444    7.8571   64.9436 C   0  0  0  0  0  0  0  0  0  0  0  0
   29.9224    7.3445   64.6597 C   0  0  0  0  0  0  0  0  0  0  0  0
   29.1018    7.9557   63.9880 O   0  0  0  0  0  0  0  0  0  0  0  0
   29.6563    6.1234   65.2431 N   0  0  0  0  0  0  0  0  0  0  0  0
   28.5088    5.3791   65.0953 C   0  0  0  0  0  0  0  0  0  0  0  0
   28.4557    4.0961   65.5431 N   0  0  0  0  0  0  0  0  0  0  0  0
   27.3321    5.6911   64.3230 C   0  0  0  0  0  0  0  0  0  0  0  0
   27.2989    3.5964   65.0772 N   0  0  0  0  0  0  0  0  0  0  0  0
   26.5756    4.5194   64.3352 C   0  0  0  0  0  0  0  0  0  0  0  0
   25.2956    4.1348   63.7397 C   0  0  0  0  0  0  0  0  0  0  0  0
   24.8933    4.6200   62.3576 C   0  0  0  0  0  0  0  0  0  0  0  0
   24.2028    5.1786   63.5711 C   0  0  0  0  0  0  0  0  0  0  0  0
  1  2  1  0
  1  3  1  0
  2  4  1  0
  2  5  2  0
  3  6  2  0
  4  7  2  0
  4  8  1  0
  7  9  1  0
  8 10  2  0
  9 11  2  0
 11 12  1  0
 12 13  1  0
 13 14  2  0
 13 15  1  0
 15 16  1  0
 16 17  2  0
 16 18  1  0
 17 19  1  0
 18 20  2  0
 20 21  1  0
 21 22  1  0
 21 23  1  0
  5  6  1  0
 10 11  1  0
 19 20  1  0
 22 23  1  0
M  END
>  <Molecule Name>  (69) 
LQBKAYJFACGUCC-NPVYFSBINA-N

>  <hs_clash>  (69) 
0.0

>  <hs_total>  (69) 
138.2654724204361

>  <Total Molweight>  (69) 
323.419

>  <cLogP>  (69) 
3.8977

>  <H-Acceptors>  (69) 
4

>  <H-Donors>  (69) 
2

>  <Polar Surface Area>  (69) 
86.02

>  <Non-H Atoms>  (69) 
23

>  <sp3-Atoms>  (69) 
4

$$$$
CWGIVRBYIAXEMP-CLRGVMNRNA-N
     RDKit          3D

 24 25  0  0  0  0  0  0  0  0999 V2000
   32.0557   11.6007   68.2856 S   0  0  0  0  0  0  0  0  0  0  0  0
   33.0798   11.1737   69.4823 O   0  0  0  0  0  0  0  0  0  0  0  0
   32.6271   12.7875   67.5795 O   0  0  0  0  0  0  0  0  0  0  0  0
   30.8493   12.0973   69.0186 N   0  0  0  0  0  0  0  0  0  0  0  0
   31.7249   10.2821   67.1966 C   0  0  0  0  0  0  0  0  0  0  0  0
   31.9959   10.4416   65.8122 C   0  0  0  0  0  0  0  0  0  0  0  0
   31.1878    9.0583   67.6938 C   0  0  0  0  0  0  0  0  0  0  0  0
   31.7380    9.3861   64.9145 C   0  0  0  0  0  0  0  0  0  0  0  0
   30.9278    7.9906   66.7934 C   0  0  0  0  0  0  0  0  0  0  0  0
   31.2048    8.1577   65.3877 C   0  0  0  0  0  0  0  0  0  0  0  0
   30.9442    7.0558   64.3951 C   0  0  0  0  0  0  0  0  0  0  0  0
   29.6944    6.3450   64.6194 N   0  0  0  0  0  0  0  0  0  0  0  0
   28.4672    6.7219   64.2479 C   0  0  0  0  0  0  0  0  0  0  0  0
   27.3413    5.7915   64.4252 C   0  0  0  0  0  0  0  0  0  0  0  0
   28.2041    7.9852   63.5577 C   0  0  0  0  0  0  0  0  0  0  0  0
   27.4844    4.5211   64.9565 C   0  0  0  0  0  0  0  0  0  0  0  0
   26.0445    6.1822   63.9401 C   0  0  0  0  0  0  0  0  0  0  0  0
   26.9120    8.3202   63.0960 C   0  0  0  0  0  0  0  0  0  0  0  0
   28.4417    4.2690   65.8623 O   0  0  0  0  0  0  0  0  0  0  0  0
   26.6955    3.4769   64.5900 N   0  0  0  0  0  0  0  0  0  0  0  0
   25.8029    7.4236   63.2787 C   0  0  0  0  0  0  0  0  0  0  0  0
   24.5772    7.7253   62.8528 N   0  0  0  0  0  0  0  0  0  0  0  0
   24.3398    8.7797   62.2844 O   0  0  0  0  0  0  0  0  0  0  0  0
   23.5510    6.8831   63.0332 O   0  0  0  0  0  0  0  0  0  0  0  0
  1  2  2  0
  1  3  2  0
  1  4  1  0
  1  5  1  0
  5  6  2  0
  5  7  1  0
  6  8  1  0
  7  9  2  0
  8 10  2  0
 10 11  1  0
 11 12  1  0
 12 13  1  0
 13 14  2  0
 13 15  1  0
 14 16  1  0
 14 17  1  0
 15 18  2  0
 16 19  2  0
 16 20  1  0
 17 21  2  0
 21 22  1  0
 22 23  2  0
 22 24  1  0
  9 10  1  0
 18 21  1  0
M  CHG  2  22   1  24  -1
M  END
>  <Molecule Name>  (70) 
CWGIVRBYIAXEMP-CLRGVMNRNA-N

>  <hs_clash>  (70) 
0.0

>  <hs_total>  (70) 
137.90098338302317

>  <Total Molweight>  (70) 
350.354

>  <cLogP>  (70) 
-0.3456

>  <H-Acceptors>  (70) 
9

>  <H-Donors>  (70) 
3

>  <Polar Surface Area>  (70) 
169.48

>  <Non-H Atoms>  (70) 
24

>  <sp3-Atoms>  (70) 
3

$$$$
NJWGWVLFRYCKGD-YAQRNVERNA-N
     RDKit          3D

 18 19  0  0  0  0  0  0  0  0999 V2000
   27.7129    6.4263   64.3178 S   0  0  0  0  0  0  0  0  0  0  0  0
   28.7289    5.5183   65.4677 C   0  0  0  0  0  0  0  0  0  0  0  0
   26.8504    4.8977   63.9404 C   0  0  0  0  0  0  0  0  0  0  0  0
   28.4136    4.2972   65.5084 N   0  0  0  0  0  0  0  0  0  0  0  0
   29.7120    6.0734   66.1989 N   0  0  0  0  0  0  0  0  0  0  0  0
   27.3293    3.8626   64.6518 C   0  0  0  0  0  0  0  0  0  0  0  0
   25.7444    4.8502   62.9400 C   0  0  0  0  0  0  0  0  0  0  0  0
   29.7860    7.5561   66.1106 C   0  0  0  0  0  0  0  0  0  0  0  0
   26.8861    2.6168   64.5778 N   0  0  0  0  0  0  0  0  0  0  0  0
   25.1858    3.7767   62.7274 O   0  0  0  0  0  0  0  0  0  0  0  0
   25.2756    6.0644   62.1444 C   0  0  0  0  0  0  0  0  0  0  0  0
   31.1117    7.9602   65.5082 C   0  0  0  0  0  0  0  0  0  0  0  0
   26.2176    6.8847   61.4375 C   0  0  0  0  0  0  0  0  0  0  0  0
   23.8859    6.3818   62.0827 C   0  0  0  0  0  0  0  0  0  0  0  0
   31.4303    7.7032   64.2294 C   0  0  0  0  0  0  0  0  0  0  0  0
   25.7693    8.0116   60.6847 C   0  0  0  0  0  0  0  0  0  0  0  0
   23.4414    7.5095   61.3289 C   0  0  0  0  0  0  0  0  0  0  0  0
   24.3825    8.3239   60.6310 C   0  0  0  0  0  0  0  0  0  0  0  0
  1  2  1  0
  1  3  1  0
  2  4  2  0
  2  5  1  0
  3  6  2  0
  3  7  1  0
  5  8  1  0
  6  9  1  0
  7 10  2  0
  7 11  1  0
  8 12  1  0
 11 13  2  0
 11 14  1  0
 12 15  2  0
 13 16  1  0
 14 17  2  0
 16 18  2  0
  4  6  1  0
 17 18  1  0
M  END
>  <Molecule Name>  (71) 
NJWGWVLFRYCKGD-YAQRNVERNA-N

>  <hs_clash>  (71) 
0.0

>  <hs_total>  (71) 
135.67954316476954

>  <Total Molweight>  (71) 
259.332

>  <cLogP>  (71) 
2.4934

>  <H-Acceptors>  (71) 
4

>  <H-Donors>  (71) 
2

>  <Polar Surface Area>  (71) 
96.25

>  <Non-H Atoms>  (71) 
18

>  <sp3-Atoms>  (71) 
1

$$$$
QNNXJIYSLIKTDV-YAQRNVERNA-N
     RDKit          3D

 18 19  0  0  0  0  0  0  0  0999 V2000
   27.5473    6.4996   64.0524 S   0  0  0  0  0  0  0  0  0  0  0  0
   28.5338    5.6486   65.1759 C   0  0  0  0  0  0  0  0  0  0  0  0
   26.7303    5.0159   63.6850 C   0  0  0  0  0  0  0  0  0  0  0  0
   28.2690    4.3411   65.2806 N   0  0  0  0  0  0  0  0  0  0  0  0
   29.5148    6.2188   65.9154 N   0  0  0  0  0  0  0  0  0  0  0  0
   27.2596    3.9731   64.4562 C   0  0  0  0  0  0  0  0  0  0  0  0
   25.7016    4.8939   62.7488 C   0  0  0  0  0  0  0  0  0  0  0  0
   29.8219    7.6379   65.7683 C   0  0  0  0  0  0  0  0  0  0  0  0
   26.8496    2.6975   64.4150 N   0  0  0  0  0  0  0  0  0  0  0  0
   25.1217    3.6938   62.5373 O   0  0  0  0  0  0  0  0  0  0  0  0
   25.1672    6.0206   61.9060 C   0  0  0  0  0  0  0  0  0  0  0  0
   31.1798    7.8236   65.1588 C   0  0  0  0  0  0  0  0  0  0  0  0
   23.7703    6.2471   61.7607 C   0  0  0  0  0  0  0  0  0  0  0  0
   26.0667    6.8912   61.2122 C   0  0  0  0  0  0  0  0  0  0  0  0
   31.3812    7.8439   63.7111 C   0  0  0  0  0  0  0  0  0  0  0  0
   23.3257    7.2959   60.9655 N   0  0  0  0  0  0  0  0  0  0  0  0
   25.5857    7.9637   60.4029 C   0  0  0  0  0  0  0  0  0  0  0  0
   24.1923    8.1499   60.2951 C   0  0  0  0  0  0  0  0  0  0  0  0
  1  2  1  0
  1  3  1  0
  2  4  2  0
  2  5  1  0
  3  6  2  0
  3  7  1  0
  5  8  1  0
  6  9  1  0
  7 10  2  0
  7 11  1  0
  8 12  1  0
 11 13  2  0
 11 14  1  0
 12 15  2  0
 13 16  1  0
 14 17  2  0
 16 18  2  0
  4  6  1  0
 17 18  1  0
M  END
>  <Molecule Name>  (72) 
QNNXJIYSLIKTDV-YAQRNVERNA-N

>  <hs_clash>  (72) 
0.0

>  <hs_total>  (72) 
134.64203211317468

>  <Total Molweight>  (72) 
260.320

>  <cLogP>  (72) 
1.4925

>  <H-Acceptors>  (72) 
5

>  <H-Donors>  (72) 
2

>  <Polar Surface Area>  (72) 
109.14

>  <Non-H Atoms>  (72) 
18

>  <sp3-Atoms>  (72) 
1

$$$$
MVVLOKWZBCMJJG-BUKGPZPNNA-N
     RDKit          3D

 26 28  0  0  0  0  0  0  0  0999 V2000
   33.1433   10.5700   64.7566 S   0  0  0  0  0  0  0  0  0  0  0  0
   33.4789   11.3350   65.9496 O   0  0  0  0  0  0  0  0  0  0  0  0
   33.9633   10.1085   63.6441 O   0  0  0  0  0  0  0  0  0  0  0  0
   32.4614   11.7609   63.9462 N   0  0  0  0  0  0  0  0  0  0  0  0
   32.0382    9.2624   65.0536 C   0  0  0  0  0  0  0  0  0  0  0  0
   31.0537    8.9619   64.1012 C   0  0  0  0  0  0  0  0  0  0  0  0
   32.1966    8.5464   66.2478 C   0  0  0  0  0  0  0  0  0  0  0  0
   30.1907    7.8928   64.3429 C   0  0  0  0  0  0  0  0  0  0  0  0
   31.3466    7.4856   66.5034 C   0  0  0  0  0  0  0  0  0  0  0  0
   30.3630    7.1731   65.5462 C   0  0  0  0  0  0  0  0  0  0  0  0
   29.5627    6.0713   65.8935 N   0  0  0  0  0  0  0  0  0  0  0  0
   28.5173    5.5260   65.1576 C   0  0  0  0  0  0  0  0  0  0  0  0
   27.5132    6.2256   64.0336 S   0  0  0  0  0  0  0  0  0  0  0  0
   28.2490    4.1942   65.3729 N   0  0  0  0  0  0  0  0  0  0  0  0
   26.6772    4.8492   63.7316 C   0  0  0  0  0  0  0  0  0  0  0  0
   27.1445    3.7668   64.5301 C   0  0  0  0  0  0  0  0  0  0  0  0
   25.5542    4.6234   62.7563 C   0  0  0  0  0  0  0  0  0  0  0  0
   26.6401    2.4672   64.5047 N   0  0  0  0  0  0  0  0  0  0  0  0
   25.0326    3.4976   62.6649 O   0  0  0  0  0  0  0  0  0  0  0  0
   25.1294    5.7710   61.8967 C   0  0  0  0  0  0  0  0  0  0  0  0
   23.7971    6.2776   61.9144 C   0  0  0  0  0  0  0  0  0  0  0  0
   26.1338    6.3386   61.0544 C   0  0  0  0  0  0  0  0  0  0  0  0
   23.5056    7.3713   61.0692 C   0  0  0  0  0  0  0  0  0  0  0  0
   22.7028    5.6836   62.8107 C   0  0  0  0  0  0  0  0  0  0  0  0
   25.8092    7.4393   60.2133 C   0  0  0  0  0  0  0  0  0  0  0  0
   24.4891    7.9419   60.2390 C   0  0  0  0  0  0  0  0  0  0  0  0
  1  2  2  0
  1  3  2  0
  1  4  1  0
  1  5  1  0
  5  6  2  0
  5  7  1  0
  6  8  1  0
  7  9  2  0
  8 10  2  0
 10 11  1  0
 11 12  1  0
 12 13  1  0
 12 14  2  0
 13 15  1  0
 14 16  1  0
 15 17  1  0
 16 18  1  0
 17 19  2  0
 17 20  1  0
 20 21  2  0
 20 22  1  0
 21 23  1  0
 21 24  1  0
 22 25  2  0
 23 26  2  0
  9 10  1  0
 15 16  2  0
 25 26  1  0
M  END
>  <Molecule Name>  (73) 
MVVLOKWZBCMJJG-BUKGPZPNNA-N

>  <hs_clash>  (73) 
2.0

>  <hs_total>  (73) 
134.45426965036808

>  <Total Molweight>  (73) 
388.471

>  <cLogP>  (73) 
2.8095

>  <H-Acceptors>  (73) 
7

>  <H-Donors>  (73) 
3

>  <Polar Surface Area>  (73) 
164.79

>  <Non-H Atoms>  (73) 
26

>  <sp3-Atoms>  (73) 
2

$$$$
SUFGPCLKXWRBHX-FHGMOFAHNA-N
     RDKit          3D

 29 32  0  0  0  0  0  0  0  0999 V2000
   33.1785   10.5838   64.7558 S   0  0  0  0  0  0  0  0  0  0  0  0
   34.2882   10.1167   63.9524 O   0  0  0  0  0  0  0  0  0  0  0  0
   33.6680   11.1004   66.0258 O   0  0  0  0  0  0  0  0  0  0  0  0
   32.3722   11.7978   63.9084 N   0  0  0  0  0  0  0  0  0  0  0  0
   32.0868    9.2006   65.0315 C   0  0  0  0  0  0  0  0  0  0  0  0
   32.3055    8.3442   66.1435 C   0  0  0  0  0  0  0  0  0  0  0  0
   31.0103    8.9467   64.1346 C   0  0  0  0  0  0  0  0  0  0  0  0
   31.4588    7.2368   66.3642 C   0  0  0  0  0  0  0  0  0  0  0  0
   30.1576    7.8362   64.3523 C   0  0  0  0  0  0  0  0  0  0  0  0
   30.3745    6.9581   65.4779 C   0  0  0  0  0  0  0  0  0  0  0  0
   29.6442    5.9147   65.7526 N   0  0  0  0  0  0  0  0  0  0  0  0
   28.6637    5.3632   65.0785 C   0  0  0  0  0  0  0  0  0  0  0  0
   27.5842    6.1957   64.0036 S   0  0  0  0  0  0  0  0  0  0  0  0
   28.4316    4.0761   65.2079 N   0  0  0  0  0  0  0  0  0  0  0  0
   26.7389    4.7230   63.6817 C   0  0  0  0  0  0  0  0  0  0  0  0
   27.3462    3.7002   64.4242 C   0  0  0  0  0  0  0  0  0  0  0  0
   25.6293    4.5867   62.8209 C   0  0  0  0  0  0  0  0  0  0  0  0
   26.9449    2.4933   64.3962 N   0  0  0  0  0  0  0  0  0  0  0  0
   25.0954    3.4945   62.6894 O   0  0  0  0  0  0  0  0  0  0  0  0
   25.0954    5.6775   62.1399 C   0  0  0  0  0  0  0  0  0  0  0  0
   25.9263    6.5602   61.3665 C   0  0  0  0  0  0  0  0  0  0  0  0
   23.6879    5.9370   62.2123 C   0  0  0  0  0  0  0  0  0  0  0  0
   25.3723    7.6898   60.6816 C   0  0  0  0  0  0  0  0  0  0  0  0
   23.1220    7.0526   61.5349 C   0  0  0  0  0  0  0  0  0  0  0  0
   23.9409    7.9416   60.7685 C   0  0  0  0  0  0  0  0  0  0  0  0
   26.1922    8.5787   59.9161 C   0  0  0  0  0  0  0  0  0  0  0  0
   23.3898    9.0752   60.0865 C   0  0  0  0  0  0  0  0  0  0  0  0
   25.6232    9.6996   59.2457 C   0  0  0  0  0  0  0  0  0  0  0  0
   24.2270    9.9484   59.3313 C   0  0  0  0  0  0  0  0  0  0  0  0
  1  2  2  0
  1  3  2  0
  1  4  1  0
  1  5  1  0
  5  6  2  0
  5  7  1  0
  6  8  1  0
  7  9  2  0
  8 10  2  0
 10 11  1  0
 11 12  1  0
 12 13  1  0
 12 14  2  0
 13 15  1  0
 14 16  1  0
 15 17  1  0
 16 18  1  0
 17 19  2  0
 17 20  1  0
 20 21  2  0
 20 22  1  0
 21 23  1  0
 22 24  2  0
 23 25  2  0
 23 26  1  0
 25 27  1  0
 26 28  2  0
 27 29  2  0
  9 10  1  0
 15 16  2  0
 24 25  1  0
 28 29  1  0
M  END
>  <Molecule Name>  (74) 
SUFGPCLKXWRBHX-FHGMOFAHNA-N

>  <hs_clash>  (74) 
2.0

>  <hs_total>  (74) 
134.26128872666305

>  <Total Molweight>  (74) 
424.504

>  <cLogP>  (74) 
3.66

>  <H-Acceptors>  (74) 
7

>  <H-Donors>  (74) 
3

>  <Polar Surface Area>  (74) 
164.79

>  <Non-H Atoms>  (74) 
29

>  <sp3-Atoms>  (74) 
1

$$$$
YFXWYMXXKFMSOB-NPVYFSBINA-N
     RDKit          3D

 23 25  0  0  0  0  0  0  0  0999 V2000
   30.9165   12.5357   71.2464 F   0  0  0  0  0  0  0  0  0  0  0  0
   30.8858   11.3709   70.5963 C   0  0  0  0  0  0  0  0  0  0  0  0
   31.3702   10.4427   71.4025 F   0  0  0  0  0  0  0  0  0  0  0  0
   29.6260   11.0480   70.3450 F   0  0  0  0  0  0  0  0  0  0  0  0
   31.5994   11.4765   69.4168 O   0  0  0  0  0  0  0  0  0  0  0  0
   31.4355   10.5844   68.3597 C   0  0  0  0  0  0  0  0  0  0  0  0
   31.1931   11.1162   67.0759 C   0  0  0  0  0  0  0  0  0  0  0  0
   31.6310    9.1999   68.5876 C   0  0  0  0  0  0  0  0  0  0  0  0
   31.1844   10.2455   65.9719 C   0  0  0  0  0  0  0  0  0  0  0  0
   31.6063    8.3592   67.4568 C   0  0  0  0  0  0  0  0  0  0  0  0
   31.4019    8.8512   66.1749 C   0  0  0  0  0  0  0  0  0  0  0  0
   31.4400    7.9503   65.0188 C   0  0  0  0  0  0  0  0  0  0  0  0
   30.0239    7.4320   64.6944 C   0  0  0  0  0  0  0  0  0  0  0  0
   29.2424    8.0550   64.0012 O   0  0  0  0  0  0  0  0  0  0  0  0
   29.7305    6.1997   65.2542 N   0  0  0  0  0  0  0  0  0  0  0  0
   28.5669    5.4795   65.0748 C   0  0  0  0  0  0  0  0  0  0  0  0
   28.4795    4.1828   65.5296 N   0  0  0  0  0  0  0  0  0  0  0  0
   27.3769    5.8177   64.3145 C   0  0  0  0  0  0  0  0  0  0  0  0
   27.3244    3.6978   65.0913 N   0  0  0  0  0  0  0  0  0  0  0  0
   26.6070    4.6327   64.3432 C   0  0  0  0  0  0  0  0  0  0  0  0
   25.3073    4.2728   63.7699 C   0  0  0  0  0  0  0  0  0  0  0  0
   24.2728    5.3455   63.5588 C   0  0  0  0  0  0  0  0  0  0  0  0
   24.9196    4.6692   62.3689 C   0  0  0  0  0  0  0  0  0  0  0  0
  1  2  1  0
  2  3  1  0
  2  4  1  0
  2  5  1  0
  5  6  1  0
  6  7  2  0
  6  8  1  0
  7  9  1  0
  8 10  2  0
  9 11  2  0
 11 12  1  0
 12 13  1  0
 13 14  2  0
 13 15  1  0
 15 16  1  0
 16 17  2  0
 16 18  1  0
 17 19  1  0
 18 20  2  0
 20 21  1  0
 21 22  1  0
 21 23  1  0
 10 11  1  0
 19 20  1  0
 22 23  1  0
M  END
>  <Molecule Name>  (75) 
YFXWYMXXKFMSOB-NPVYFSBINA-N

>  <hs_clash>  (75) 
15.0

>  <hs_total>  (75) 
134.0059152022775

>  <Total Molweight>  (75) 
325.289

>  <cLogP>  (75) 
3.314

>  <H-Acceptors>  (75) 
5

>  <H-Donors>  (75) 
2

>  <Polar Surface Area>  (75) 
67.01

>  <Non-H Atoms>  (75) 
23

>  <sp3-Atoms>  (75) 
6

$$$$
CCDIUVLNHCGSMH-UHFFFAOYNA-N
     RDKit          3D

 26 30  0  0  0  0  0  0  0  0999 V2000
   27.1485    6.9832   63.0755 N   0  0  0  0  0  0  0  0  0  0  0  0
   28.0880    7.9345   63.1018 C   0  0  0  0  0  0  0  0  0  0  0  0
   27.4076    5.8418   63.7822 C   0  0  0  0  0  0  0  0  0  0  0  0
   27.8588    9.1975   62.3536 C   0  0  0  0  0  0  0  0  0  0  0  0
   29.3473    7.8676   63.8430 C   0  0  0  0  0  0  0  0  0  0  0  0
   28.5980    5.7052   64.5067 N   0  0  0  0  0  0  0  0  0  0  0  0
   26.7062    4.6639   64.0061 C   0  0  0  0  0  0  0  0  0  0  0  0
   26.5684    9.4975   61.9352 C   0  0  0  0  0  0  0  0  0  0  0  0
   28.9084   10.0719   62.0453 C   0  0  0  0  0  0  0  0  0  0  0  0
   29.5796    6.7235   64.5217 C   0  0  0  0  0  0  0  0  0  0  0  0
   28.6510    4.5024   65.1896 N   0  0  0  0  0  0  0  0  0  0  0  0
   27.5171    3.8880   64.8528 C   0  0  0  0  0  0  0  0  0  0  0  0
   25.3445    4.2307   63.5169 C   0  0  0  0  0  0  0  0  0  0  0  0
   26.2999   10.6743   61.2301 C   0  0  0  0  0  0  0  0  0  0  0  0
   28.6470   11.2439   61.3162 C   0  0  0  0  0  0  0  0  0  0  0  0
   30.6965    6.4709   65.2469 N   0  0  0  0  0  0  0  0  0  0  0  0
   24.3537    5.2465   63.0399 C   0  0  0  0  0  0  0  0  0  0  0  0
   24.9884    4.2852   62.0565 C   0  0  0  0  0  0  0  0  0  0  0  0
   27.3386   11.5398   60.9025 C   0  0  0  0  0  0  0  0  0  0  0  0
   31.9677    7.1696   65.2479 C   0  0  0  0  0  0  0  0  0  0  0  0
   32.0043    8.3159   66.2217 C   0  0  0  0  0  0  0  0  0  0  0  0
   31.9869    8.0773   67.5824 C   0  0  0  0  0  0  0  0  0  0  0  0
   32.0628    9.6491   65.7952 C   0  0  0  0  0  0  0  0  0  0  0  0
   32.0592    9.0567   68.5285 N   0  0  0  0  0  0  0  0  0  0  0  0
   32.1343   10.6717   66.7388 C   0  0  0  0  0  0  0  0  0  0  0  0
   32.1376   10.3262   68.0805 C   0  0  0  0  0  0  0  0  0  0  0  0
  1  2  2  0
  1  3  1  0
  2  4  1  0
  2  5  1  0
  3  6  1  0
  3  7  2  0
  4  8  2  0
  4  9  1  0
  5 10  2  0
  6 11  1  0
  7 12  1  0
  7 13  1  0
  8 14  1  0
  9 15  2  0
 10 16  1  0
 13 17  1  0
 13 18  1  0
 14 19  2  0
 16 20  1  0
 20 21  1  0
 21 22  2  0
 21 23  1  0
 22 24  1  0
 23 25  2  0
 24 26  2  0
  6 10  1  0
 11 12  2  0
 15 19  1  0
 17 18  1  0
 25 26  1  0
M  END
>  <Molecule Name>  (76) 
CCDIUVLNHCGSMH-UHFFFAOYNA-N

>  <hs_clash>  (76) 
0.0

>  <hs_total>  (76) 
133.29321576339885

>  <Total Molweight>  (76) 
341.417

>  <cLogP>  (76) 
2.8389

>  <H-Acceptors>  (76) 
5

>  <H-Donors>  (76) 
1

>  <Polar Surface Area>  (76) 
55.11

>  <Non-H Atoms>  (76) 
26

>  <sp3-Atoms>  (76) 
4

$$$$
CGDCHWZCEONCMK-LILDFLRNNA-N
     RDKit          3D

 22 24  0  0  0  0  0  0  0  0999 V2000
   27.8533    6.4374   63.9576 S   0  0  0  0  0  0  0  0  0  0  0  0
   28.8868    5.4950   65.0262 C   0  0  0  0  0  0  0  0  0  0  0  0
   26.8909    5.0102   63.6384 C   0  0  0  0  0  0  0  0  0  0  0  0
   28.5561    4.2446   65.1643 N   0  0  0  0  0  0  0  0  0  0  0  0
   29.9902    5.9850   65.6906 N   0  0  0  0  0  0  0  0  0  0  0  0
   27.4463    3.9546   64.4007 C   0  0  0  0  0  0  0  0  0  0  0  0
   25.7314    4.8996   62.7431 C   0  0  0  0  0  0  0  0  0  0  0  0
   30.6250    7.2587   65.7494 C   0  0  0  0  0  0  0  0  0  0  0  0
   26.9685    2.7202   64.3957 N   0  0  0  0  0  0  0  0  0  0  0  0
   25.1283    3.8064   62.6083 O   0  0  0  0  0  0  0  0  0  0  0  0
   25.2489    6.0800   61.9252 C   0  0  0  0  0  0  0  0  0  0  0  0
   31.4799    7.6492   66.8608 C   0  0  0  0  0  0  0  0  0  0  0  0
   30.4100    8.2075   64.6440 C   0  0  0  0  0  0  0  0  0  0  0  0
   26.1818    6.8825   61.1310 C   0  0  0  0  0  0  0  0  0  0  0  0
   23.8426    6.4168   61.9046 C   0  0  0  0  0  0  0  0  0  0  0  0
   32.0920    8.9759   66.8460 C   0  0  0  0  0  0  0  0  0  0  0  0
   31.0335    9.5216   64.6604 C   0  0  0  0  0  0  0  0  0  0  0  0
   25.7247    7.9903   60.3456 C   0  0  0  0  0  0  0  0  0  0  0  0
   23.3836    7.5346   61.1099 C   0  0  0  0  0  0  0  0  0  0  0  0
   32.8785    9.3194   67.8885 F   0  0  0  0  0  0  0  0  0  0  0  0
   31.8843    9.9180   65.7727 C   0  0  0  0  0  0  0  0  0  0  0  0
   24.3226    8.3174   60.3342 C   0  0  0  0  0  0  0  0  0  0  0  0
  1  2  1  0
  1  3  1  0
  2  4  2  0
  2  5  1  0
  3  6  2  0
  3  7  1  0
  5  8  1  0
  6  9  1  0
  7 10  2  0
  7 11  1  0
  8 12  2  0
  8 13  1  0
 11 14  2  0
 11 15  1  0
 12 16  1  0
 13 17  2  0
 14 18  1  0
 15 19  2  0
 16 20  1  0
 16 21  2  0
 18 22  2  0
  4  6  1  0
 17 21  1  0
 19 22  1  0
M  END
>  <Molecule Name>  (77) 
CGDCHWZCEONCMK-LILDFLRNNA-N

>  <hs_clash>  (77) 
0.0

>  <hs_total>  (77) 
133.11134326914103

>  <Total Molweight>  (77) 
313.355

>  <cLogP>  (77) 
3.8024

>  <H-Acceptors>  (77) 
4

>  <H-Donors>  (77) 
2

>  <Polar Surface Area>  (77) 
96.25

>  <Non-H Atoms>  (77) 
22

>  <sp3-Atoms>  (77) 
0

$$$$
YGOUPMYBESSSAI-YGPBECBDNA-N
     RDKit          3D

 20 21  0  0  0  0  0  0  0  0999 V2000
   24.4612    8.7829   62.2652 O   0  0  0  0  0  0  0  0  0  0  0  0
   24.6701    7.7257   62.8454 N   0  0  0  0  0  0  0  0  0  0  0  0
   23.6162    6.9010   63.0293 O   0  0  0  0  0  0  0  0  0  0  0  0
   25.8901    7.4039   63.2786 C   0  0  0  0  0  0  0  0  0  0  0  0
   26.1187    6.1682   63.9535 C   0  0  0  0  0  0  0  0  0  0  0  0
   27.0111    8.2778   63.0869 C   0  0  0  0  0  0  0  0  0  0  0  0
   27.4168    5.7673   64.4395 C   0  0  0  0  0  0  0  0  0  0  0  0
   28.2979    7.9295   63.5477 C   0  0  0  0  0  0  0  0  0  0  0  0
   28.5552    6.6710   64.2369 C   0  0  0  0  0  0  0  0  0  0  0  0
   27.5330    4.5101   65.0058 C   0  0  0  0  0  0  0  0  0  0  0  0
   29.7829    6.3215   64.6508 N   0  0  0  0  0  0  0  0  0  0  0  0
   28.4526    4.2744   65.9489 O   0  0  0  0  0  0  0  0  0  0  0  0
   26.7400    3.4638   64.6349 N   0  0  0  0  0  0  0  0  0  0  0  0
   31.0309    7.0937   64.5010 C   0  0  0  0  0  0  0  0  0  0  0  0
   31.1739    8.2047   65.5137 C   0  0  0  0  0  0  0  0  0  0  0  0
   31.1125    7.9388   66.9135 C   0  0  0  0  0  0  0  0  0  0  0  0
   31.3738    9.5529   65.0863 C   0  0  0  0  0  0  0  0  0  0  0  0
   31.2477    8.9837   67.8146 N   0  0  0  0  0  0  0  0  0  0  0  0
   31.5080   10.6016   66.0313 C   0  0  0  0  0  0  0  0  0  0  0  0
   31.4410   10.2926   67.4129 C   0  0  0  0  0  0  0  0  0  0  0  0
  1  2  2  0
  2  3  1  0
  2  4  1  0
  4  5  2  0
  4  6  1  0
  5  7  1  0
  6  8  2  0
  7  9  2  0
  7 10  1  0
  9 11  1  0
 10 12  2  0
 10 13  1  0
 11 14  1  0
 14 15  1  0
 15 16  2  0
 15 17  1  0
 16 18  1  0
 17 19  2  0
 18 20  2  0
  8  9  1  0
 19 20  1  0
M  CHG  2   2   1   3  -1
M  END
>  <Molecule Name>  (78) 
YGOUPMYBESSSAI-YGPBECBDNA-N

>  <hs_clash>  (78) 
0.0

>  <hs_total>  (78) 
132.74485642887313

>  <Total Molweight>  (78) 
272.263

>  <cLogP>  (78) 
-0.1105

>  <H-Acceptors>  (78) 
7

>  <H-Donors>  (78) 
2

>  <Polar Surface Area>  (78) 
113.83

>  <Non-H Atoms>  (78) 
20

>  <sp3-Atoms>  (78) 
2

$$$$
RXZMYLDMFYNEIM-GNNIPBQYNA-O
     RDKit          3D

 34 38  0  0  0  0  0  0  0  0999 V2000
   21.4498    6.7257   62.2227 O   0  0  0  0  0  0  0  0  0  0  0  0
   22.3608    7.4328   61.8746 C   0  0  0  0  0  0  0  0  0  0  0  0
   22.3184    8.3561   60.9084 N   0  0  0  0  0  0  0  0  0  0  0  0
   23.6316    7.2738   62.5740 C   0  0  0  0  0  0  0  0  0  0  0  0
   21.1990    8.7318   60.0606 C   0  0  0  0  0  0  0  0  0  0  0  0
   24.5037    8.2549   62.6969 N   0  0  0  0  0  0  0  0  0  0  0  0
   24.1579    6.0476   63.2405 C   0  0  0  0  0  0  0  0  0  0  0  0
   25.5955    7.7977   63.3951 N   0  0  0  0  0  0  0  0  0  0  0  0
   25.4632    6.5267   63.7501 C   0  0  0  0  0  0  0  0  0  0  0  0
   23.6748    4.6058   63.4909 C   0  0  0  0  0  0  0  0  0  0  0  0
   26.6408    8.8303   63.5911 C   0  0  0  0  0  0  0  0  0  0  0  0
   26.3987    5.6352   64.4786 C   0  0  0  0  0  0  0  0  0  0  0  0
   24.7893    3.6651   63.9741 C   0  0  0  0  0  0  0  0  0  0  0  0
   23.0126    3.9696   62.2711 C   0  0  0  0  0  0  0  0  0  0  0  0
   22.6602    4.7080   64.5965 C   0  0  0  0  0  0  0  0  0  0  0  0
   27.5515    6.1233   65.0084 N   0  0  0  0  0  0  0  0  0  0  0  0
   26.0644    4.2700   64.5917 C   0  0  0  0  0  0  0  0  0  0  0  0
   28.4380    5.3451   65.6686 C   0  0  0  0  0  0  0  0  0  0  0  0
   26.9915    3.4683   65.2860 C   0  0  0  0  0  0  0  0  0  0  0  0
   28.1364    4.0103   65.8123 N   0  0  0  0  0  0  0  0  0  0  0  0
   29.5921    5.8491   66.1678 N   0  0  0  0  0  0  0  0  0  0  0  0
   30.1157    7.1278   66.1188 C   0  0  0  0  0  0  0  0  0  0  0  0
   29.9867    7.9717   64.9638 C   0  0  0  0  0  0  0  0  0  0  0  0
   30.8307    7.6143   67.2510 C   0  0  0  0  0  0  0  0  0  0  0  0
   30.5443    9.2528   64.9292 C   0  0  0  0  0  0  0  0  0  0  0  0
   31.4006    8.9063   67.2263 C   0  0  0  0  0  0  0  0  0  0  0  0
   31.2581    9.7346   66.0567 C   0  0  0  0  0  0  0  0  0  0  0  0
   31.8357   11.0136   66.0384 N   0  0  0  0  0  0  0  0  0  0  0  0
   32.7147   11.4234   64.9348 C   0  0  0  0  0  0  0  0  0  0  0  0
   31.5459   11.8793   67.2099 C   0  0  0  0  0  0  0  0  0  0  0  0
   32.0376   12.6915   64.4306 C   0  0  0  0  0  0  0  0  0  0  0  0
   30.9292   13.1654   66.6615 C   0  0  0  0  0  0  0  0  0  0  0  0
   31.8945   13.5259   65.6309 N   0  0  0  0  0  0  0  0  0  0  0  0
   32.7318   14.7030   65.8229 C   0  0  0  0  0  0  0  0  0  0  0  0
  1  2  2  0
  2  3  1  0
  2  4  1  0
  3  5  1  0
  4  6  2  0
  4  7  1  0
  6  8  1  0
  7  9  2  0
  7 10  1  0
  8 11  1  0
  9 12  1  0
 10 13  1  0
 10 14  1  0
 10 15  1  0
 12 16  2  0
 12 17  1  0
 16 18  1  0
 17 19  2  0
 18 20  2  0
 18 21  1  0
 21 22  1  0
 22 23  2  0
 22 24  1  0
 23 25  1  0
 24 26  2  0
 25 27  2  0
 27 28  1  0
 28 29  1  0
 28 30  1  0
 29 31  1  0
 30 32  1  0
 31 33  1  0
 33 34  1  0
  8  9  1  0
 13 17  1  0
 19 20  1  0
 26 27  1  0
 32 33  1  0
M  CHG  1  33   1
M  END
>  <Molecule Name>  (79) 
RXZMYLDMFYNEIM-GNNIPBQYNA-O

>  <hs_clash>  (79) 
3.0

>  <hs_total>  (79) 
131.97244887101988

>  <Total Molweight>  (79) 
461.592

>  <cLogP>  (79) 
-0.0149

>  <H-Acceptors>  (79) 
9

>  <H-Donors>  (79) 
3

>  <Polar Surface Area>  (79) 
92.41

>  <Non-H Atoms>  (79) 
34

>  <sp3-Atoms>  (79) 
12

$$$$
UJHTWFHWKSDNFF-YAQRNVERNA-N
     RDKit          3D

 18 19  0  0  0  0  0  0  0  0999 V2000
   28.0517    6.3289   64.1565 S   0  0  0  0  0  0  0  0  0  0  0  0
   28.8692    5.3152   65.2737 C   0  0  0  0  0  0  0  0  0  0  0  0
   27.1533    4.9667   63.6108 C   0  0  0  0  0  0  0  0  0  0  0  0
   28.4858    4.0211   65.2477 N   0  0  0  0  0  0  0  0  0  0  0  0
   29.8469    5.7498   66.1404 N   0  0  0  0  0  0  0  0  0  0  0  0
   27.5261    3.8121   64.3245 C   0  0  0  0  0  0  0  0  0  0  0  0
   26.2208    5.0635   62.5979 C   0  0  0  0  0  0  0  0  0  0  0  0
   30.2883    7.1397   66.1704 C   0  0  0  0  0  0  0  0  0  0  0  0
   27.0154    2.5739   64.1429 N   0  0  0  0  0  0  0  0  0  0  0  0
   25.5443    3.9603   62.1763 O   0  0  0  0  0  0  0  0  0  0  0  0
   25.9227    6.3602   61.8920 C   0  0  0  0  0  0  0  0  0  0  0  0
   31.2334    7.4495   65.0291 C   0  0  0  0  0  0  0  0  0  0  0  0
   26.2039    7.6210   62.4958 N   0  0  0  0  0  0  0  0  0  0  0  0
   25.3538    6.3603   60.5822 C   0  0  0  0  0  0  0  0  0  0  0  0
   30.9232    8.5092   64.0489 C   0  0  0  0  0  0  0  0  0  0  0  0
   25.9246    8.8383   61.8120 C   0  0  0  0  0  0  0  0  0  0  0  0
   25.0885    7.6007   59.9317 C   0  0  0  0  0  0  0  0  0  0  0  0
   25.3743    8.7997   60.5484 C   0  0  0  0  0  0  0  0  0  0  0  0
  1  2  1  0
  1  3  1  0
  2  4  2  0
  2  5  1  0
  3  6  2  0
  3  7  1  0
  5  8  1  0
  6  9  1  0
  7 10  2  0
  7 11  1  0
  8 12  1  0
 11 13  2  0
 11 14  1  0
 12 15  2  0
 13 16  1  0
 14 17  2  0
 16 18  2  0
  4  6  1  0
 17 18  1  0
M  END
>  <Molecule Name>  (80) 
UJHTWFHWKSDNFF-YAQRNVERNA-N

>  <hs_clash>  (80) 
0.0

>  <hs_total>  (80) 
131.4466276065615

>  <Total Molweight>  (80) 
260.320

>  <cLogP>  (80) 
1.5465

>  <H-Acceptors>  (80) 
5

>  <H-Donors>  (80) 
2

>  <Polar Surface Area>  (80) 
109.14

>  <Non-H Atoms>  (80) 
18

>  <sp3-Atoms>  (80) 
1

$$$$
PXLNCBTUYNESDD-KGCNKATMNA-N
     RDKit          3D

 16 17  0  0  0  0  0  0  0  0999 V2000
   34.7410   10.6011   67.1922 Br  0  0  0  0  0  0  0  0  0  0  0  0
   33.2527    9.6246   66.5879 C   0  0  0  0  0  0  0  0  0  0  0  0
   32.9120    9.7189   65.2311 C   0  0  0  0  0  0  0  0  0  0  0  0
   32.4979    8.7959   67.4465 C   0  0  0  0  0  0  0  0  0  0  0  0
   31.8088    9.0024   64.7471 C   0  0  0  0  0  0  0  0  0  0  0  0
   31.3989    8.0907   66.9376 C   0  0  0  0  0  0  0  0  0  0  0  0
   31.0365    8.1553   65.5897 C   0  0  0  0  0  0  0  0  0  0  0  0
   29.9073    7.4333   65.0947 C   0  0  0  0  0  0  0  0  0  0  0  0
   29.2199    7.9376   64.2094 O   0  0  0  0  0  0  0  0  0  0  0  0
   29.6147    6.2147   65.6196 N   0  0  0  0  0  0  0  0  0  0  0  0
   28.5855    5.4014   65.2224 C   0  0  0  0  0  0  0  0  0  0  0  0
   28.5776    4.1335   65.6162 N   0  0  0  0  0  0  0  0  0  0  0  0
   27.4905    5.6181   64.4403 C   0  0  0  0  0  0  0  0  0  0  0  0
   27.5025    3.5701   65.0743 N   0  0  0  0  0  0  0  0  0  0  0  0
   26.8032    4.4431   64.3778 C   0  0  0  0  0  0  0  0  0  0  0  0
   25.4899    4.1051   63.6547 C   0  0  0  0  0  0  0  0  0  0  0  0
  1  2  1  0
  2  3  2  0
  2  4  1  0
  3  5  1  0
  4  6  2  0
  5  7  2  0
  7  8  1  0
  8  9  2  0
  8 10  1  0
 10 11  1  0
 11 12  2  0
 11 13  1  0
 12 14  1  0
 13 15  2  0
 15 16  1  0
  6  7  1  0
 14 15  1  0
M  END
>  <Molecule Name>  (81) 
PXLNCBTUYNESDD-KGCNKATMNA-N

>  <hs_clash>  (81) 
0.0

>  <hs_total>  (81) 
131.03892692768463

>  <Total Molweight>  (81) 
280.124

>  <cLogP>  (81) 
2.1752

>  <H-Acceptors>  (81) 
4

>  <H-Donors>  (81) 
2

>  <Polar Surface Area>  (81) 
57.78

>  <Non-H Atoms>  (81) 
16

>  <sp3-Atoms>  (81) 
1

$$$$
YLGMTQLIVBAYHU-CMIURBJDNA-N
     RDKit          3D

 16 17  0  0  0  0  0  0  0  0999 V2000
   22.8094    3.9582   61.0316 O   0  0  0  0  0  0  0  0  0  0  0  0
   23.8340    4.6052   61.6527 C   0  0  0  0  0  0  0  0  0  0  0  0
   24.6202    3.9867   62.6209 C   0  0  0  0  0  0  0  0  0  0  0  0
   24.0928    5.9067   61.2620 C   0  0  0  0  0  0  0  0  0  0  0  0
   25.6725    4.6354   63.2489 C   0  0  0  0  0  0  0  0  0  0  0  0
   25.1453    6.5603   61.8672 C   0  0  0  0  0  0  0  0  0  0  0  0
   25.9175    5.9431   62.8433 C   0  0  0  0  0  0  0  0  0  0  0  0
   26.8321    6.7742   63.3024 N   0  0  0  0  0  0  0  0  0  0  0  0
   27.7679    6.6823   64.0898 N   0  0  0  0  0  0  0  0  0  0  0  0
   28.3434    5.7235   64.8131 C   0  0  0  0  0  0  0  0  0  0  0  0
   29.4925    6.1050   65.4825 C   0  0  0  0  0  0  0  0  0  0  0  0
   28.1842    4.3788   65.1552 C   0  0  0  0  0  0  0  0  0  0  0  0
   29.9504    5.0645   66.1626 N   0  0  0  0  0  0  0  0  0  0  0  0
   30.0610    7.3059   65.4652 N   0  0  0  0  0  0  0  0  0  0  0  0
   29.2018    4.1031   65.9472 N   0  0  0  0  0  0  0  0  0  0  0  0
   27.3053    3.4548   64.7936 N   0  0  0  0  0  0  0  0  0  0  0  0
  1  2  1  0
  2  3  2  0
  2  4  1  0
  3  5  1  0
  4  6  2  0
  5  7  2  0
  7  8  1  0
  8  9  2  0
  9 10  1  0
 10 11  1  0
 10 12  2  0
 11 13  2  0
 11 14  1  0
 12 15  1  0
 12 16  1  0
  6  7  1  0
 13 15  1  0
M  CHG  1  15  -1
M  END
>  <Molecule Name>  (82) 
YLGMTQLIVBAYHU-CMIURBJDNA-N

>  <hs_clash>  (82) 
0.0

>  <hs_total>  (82) 
131.02328581786773

>  <Total Molweight>  (82) 
217.211

>  <cLogP>  (82) 
0.8544

>  <H-Acceptors>  (82) 
7

>  <H-Donors>  (82) 
3

>  <Polar Surface Area>  (82) 
109.88

>  <Non-H Atoms>  (82) 
16

>  <sp3-Atoms>  (82) 
1

$$$$
HQPVGVSQPQVZLD-MRSUPTMINA-N
     RDKit          3D

 28 31  0  0  0  0  0  0  0  0999 V2000
   26.6300    6.8955   59.8304 F   0  0  0  0  0  0  0  0  0  0  0  0
   26.3660    8.1010   60.3100 C   0  0  0  0  0  0  0  0  0  0  0  0
   26.4792    8.3695   61.6714 C   0  0  0  0  0  0  0  0  0  0  0  0
   25.9435    9.0803   59.4059 C   0  0  0  0  0  0  0  0  0  0  0  0
   26.1791    9.6571   62.1155 C   0  0  0  0  0  0  0  0  0  0  0  0
   26.9111    7.2834   62.5811 C   0  0  0  0  0  0  0  0  0  0  0  0
   25.6543   10.3690   59.8600 C   0  0  0  0  0  0  0  0  0  0  0  0
   26.2712    9.9817   63.4160 F   0  0  0  0  0  0  0  0  0  0  0  0
   25.7745   10.6593   61.2186 C   0  0  0  0  0  0  0  0  0  0  0  0
   26.1404    6.2589   62.7454 N   0  0  0  0  0  0  0  0  0  0  0  0
   28.2494    7.4565   63.2196 C   0  0  0  0  0  0  0  0  0  0  0  0
   26.5977    5.2674   63.5848 C   0  0  0  0  0  0  0  0  0  0  0  0
   28.6962    6.4494   64.0060 C   0  0  0  0  0  0  0  0  0  0  0  0
   27.8316    5.3460   64.2205 N   0  0  0  0  0  0  0  0  0  0  0  0
   26.0364    4.0625   63.9604 C   0  0  0  0  0  0  0  0  0  0  0  0
   29.9386    6.4032   64.6217 N   0  0  0  0  0  0  0  0  0  0  0  0
   28.0848    4.2311   64.9946 N   0  0  0  0  0  0  0  0  0  0  0  0
   27.0058    3.4643   64.8157 C   0  0  0  0  0  0  0  0  0  0  0  0
   24.7210    3.5162   63.5425 C   0  0  0  0  0  0  0  0  0  0  0  0
   31.1366    7.1670   64.3372 C   0  0  0  0  0  0  0  0  0  0  0  0
   23.5747    4.4569   63.8674 C   0  0  0  0  0  0  0  0  0  0  0  0
   31.2277    8.3553   65.2195 C   0  0  0  0  0  0  0  0  0  0  0  0
   31.1859    9.6326   64.7161 C   0  0  0  0  0  0  0  0  0  0  0  0
   31.2906    8.2734   66.6062 C   0  0  0  0  0  0  0  0  0  0  0  0
   31.2326   10.7378   65.4830 N   0  0  0  0  0  0  0  0  0  0  0  0
   31.3484    9.3413   67.4126 N   0  0  0  0  0  0  0  0  0  0  0  0
   31.3051   10.5412   66.8119 C   0  0  0  0  0  0  0  0  0  0  0  0
   31.3339   11.6380   67.6054 N   0  0  0  0  0  0  0  0  0  0  0  0
  1  2  1  0
  2  3  2  0
  2  4  1  0
  3  5  1  0
  3  6  1  0
  4  7  2  0
  5  8  1  0
  5  9  2  0
  6 10  2  0
  6 11  1  0
 10 12  1  0
 11 13  2  0
 12 14  1  0
 12 15  2  0
 13 16  1  0
 14 17  1  0
 15 18  1  0
 15 19  1  0
 16 20  1  0
 19 21  1  0
 20 22  1  0
 22 23  2  0
 22 24  1  0
 23 25  1  0
 24 26  2  0
 25 27  2  0
 27 28  1  0
  7  9  1  0
 13 14  1  0
 17 18  2  0
 26 27  1  0
M  END
>  <Molecule Name>  (83) 
HQPVGVSQPQVZLD-MRSUPTMINA-N

>  <hs_clash>  (83) 
0.0

>  <hs_total>  (83) 
130.64575540459234

>  <Total Molweight>  (83) 
381.389

>  <cLogP>  (83) 
1.8191

>  <H-Acceptors>  (83) 
7

>  <H-Donors>  (83) 
2

>  <Polar Surface Area>  (83) 
94.02

>  <Non-H Atoms>  (83) 
28

>  <sp3-Atoms>  (83) 
3

$$$$
LXKAYWZVBXYTGU-LILDFLRNNA-N
     RDKit          3D

 23 25  0  0  0  0  0  0  0  0999 V2000
   28.4192    6.7569   64.0240 S   0  0  0  0  0  0  0  0  0  0  0  0
   29.2433    5.7424   65.1411 C   0  0  0  0  0  0  0  0  0  0  0  0
   27.4589    5.4590   63.5512 C   0  0  0  0  0  0  0  0  0  0  0  0
   28.7893    4.4676   65.1540 N   0  0  0  0  0  0  0  0  0  0  0  0
   30.2852    6.1445   65.9764 N   0  0  0  0  0  0  0  0  0  0  0  0
   27.7755    4.3047   64.2548 C   0  0  0  0  0  0  0  0  0  0  0  0
   26.4092    5.6061   62.4801 C   0  0  0  0  0  0  0  0  0  0  0  0
   31.0735    7.3088   65.9040 C   0  0  0  0  0  0  0  0  0  0  0  0
   27.1534    3.1168   64.0625 N   0  0  0  0  0  0  0  0  0  0  0  0
   25.6858    4.5303   62.1457 O   0  0  0  0  0  0  0  0  0  0  0  0
   26.1815    6.9171   61.7841 C   0  0  0  0  0  0  0  0  0  0  0  0
   30.9339    8.3962   64.8424 C   0  0  0  0  0  0  0  0  0  0  0  0
   32.1078    7.4968   66.9342 C   0  0  0  0  0  0  0  0  0  0  0  0
   26.0235    8.1932   62.5380 C   0  0  0  0  0  0  0  0  0  0  0  0
   26.1073    6.9470   60.3090 C   0  0  0  0  0  0  0  0  0  0  0  0
   31.7724    9.5641   64.8391 C   0  0  0  0  0  0  0  0  0  0  0  0
   32.9424    8.6725   66.9246 C   0  0  0  0  0  0  0  0  0  0  0  0
   25.8024    9.4476   61.8342 C   0  0  0  0  0  0  0  0  0  0  0  0
   25.8853    8.1815   59.5880 C   0  0  0  0  0  0  0  0  0  0  0  0
   32.7850    9.7161   65.8841 C   0  0  0  0  0  0  0  0  0  0  0  0
   25.6613   10.6303   62.6146 O   0  0  0  0  0  0  0  0  0  0  0  0
   25.7322    9.4457   60.3452 C   0  0  0  0  0  0  0  0  0  0  0  0
   25.4542   11.8666   62.1406 C   0  0  0  0  0  0  0  0  0  0  0  0
  1  2  1  0
  1  3  1  0
  2  4  2  0
  2  5  1  0
  3  6  2  0
  3  7  1  0
  5  8  1  0
  6  9  1  0
  7 10  2  0
  7 11  1  0
  8 12  2  0
  8 13  1  0
 11 14  2  0
 11 15  1  0
 12 16  1  0
 13 17  2  0
 14 18  1  0
 15 19  2  0
 16 20  2  0
 18 21  1  0
 18 22  2  0
 21 23  1  0
  4  6  1  0
 17 20  1  0
 19 22  1  0
M  END
>  <Molecule Name>  (84) 
LXKAYWZVBXYTGU-LILDFLRNNA-N

>  <hs_clash>  (84) 
0.0

>  <hs_total>  (84) 
130.28942963753695

>  <Total Molweight>  (84) 
325.391

>  <cLogP>  (84) 
3.6316

>  <H-Acceptors>  (84) 
5

>  <H-Donors>  (84) 
2

>  <Polar Surface Area>  (84) 
105.48

>  <Non-H Atoms>  (84) 
23

>  <sp3-Atoms>  (84) 
2

$$$$
HGEJNHUGVPFHIF-KQEHPHAYNA-N
     RDKit          3D

 20 22  0  0  0  0  0  0  0  0999 V2000
   29.2489    7.9579   64.1082 O   0  0  0  0  0  0  0  0  0  0  0  0
   29.9578    7.4180   64.9582 C   0  0  0  0  0  0  0  0  0  0  0  0
   29.7090    6.2158   65.5060 N   0  0  0  0  0  0  0  0  0  0  0  0
   31.1749    8.1714   65.4837 C   0  0  0  0  0  0  0  0  0  0  0  0
   28.6649    5.4197   65.1567 C   0  0  0  0  0  0  0  0  0  0  0  0
   31.8839    9.0076   64.6151 C   0  0  0  0  0  0  0  0  0  0  0  0
   31.5751    8.0715   66.8123 C   0  0  0  0  0  0  0  0  0  0  0  0
   28.6576    4.1463   65.5456 N   0  0  0  0  0  0  0  0  0  0  0  0
   27.5480    5.6490   64.4300 C   0  0  0  0  0  0  0  0  0  0  0  0
   32.9620    9.7638   65.0836 C   0  0  0  0  0  0  0  0  0  0  0  0
   32.6512    8.8166   67.2697 C   0  0  0  0  0  0  0  0  0  0  0  0
   27.6422    3.5645   65.0981 N   0  0  0  0  0  0  0  0  0  0  0  0
   26.9098    4.4600   64.4174 C   0  0  0  0  0  0  0  0  0  0  0  0
   33.3708    9.6304   66.4092 C   0  0  0  0  0  0  0  0  0  0  0  0
   25.5671    4.0133   63.7907 C   0  0  0  0  0  0  0  0  0  0  0  0
   34.5425   10.4327   67.0007 C   0  0  0  0  0  0  0  0  0  0  0  0
   25.1783    4.6225   62.4307 C   0  0  0  0  0  0  0  0  0  0  0  0
   24.4421    5.0516   63.7119 C   0  0  0  0  0  0  0  0  0  0  0  0
   35.5180   10.7019   66.2950 O   0  0  0  0  0  0  0  0  0  0  0  0
   34.4313   10.7929   68.2701 N   0  0  0  0  0  0  0  0  0  0  0  0
  1  2  2  0
  2  3  1  0
  2  4  1  0
  3  5  1  0
  4  6  2  0
  4  7  1  0
  5  8  2  0
  5  9  1  0
  6 10  1  0
  7 11  2  0
  8 12  1  0
  9 13  2  0
 10 14  2  0
 13 15  1  0
 14 16  1  0
 15 17  1  0
 15 18  1  0
 16 19  2  0
 16 20  1  0
 11 14  1  0
 12 13  1  0
 17 18  1  0
M  END
>  <Molecule Name>  (85) 
HGEJNHUGVPFHIF-KQEHPHAYNA-N

>  <hs_clash>  (85) 
0.0

>  <hs_total>  (85) 
130.13647728335292

>  <Total Molweight>  (85) 
270.291

>  <cLogP>  (85) 
1.3042

>  <H-Acceptors>  (85) 
6

>  <H-Donors>  (85) 
3

>  <Polar Surface Area>  (85) 
100.87

>  <Non-H Atoms>  (85) 
20

>  <sp3-Atoms>  (85) 
3

$$$$
NVVKOBSVOCFOEN-IACNKJBUNA-M
     RDKit          3D

 20 21  0  0  0  0  0  0  0  0999 V2000
   33.4619   10.7420   64.6519 S   0  0  0  0  0  0  0  0  0  0  0  0
   33.0650   11.8652   63.8471 O   0  0  0  0  0  0  0  0  0  0  0  0
   34.5534   10.1643   63.8198 O   0  0  0  0  0  0  0  0  0  0  0  0
   33.9137   11.2118   66.1187 N   0  0  0  0  0  0  0  0  0  0  0  0
   32.1985    9.5141   64.7903 C   0  0  0  0  0  0  0  0  0  0  0  0
   31.1257    9.4928   63.8522 C   0  0  0  0  0  0  0  0  0  0  0  0
   32.2889    8.5755   65.8241 C   0  0  0  0  0  0  0  0  0  0  0  0
   30.1778    8.5470   63.9612 C   0  0  0  0  0  0  0  0  0  0  0  0
   31.3282    7.6206   65.9469 C   0  0  0  0  0  0  0  0  0  0  0  0
   30.2621    7.6044   65.0128 C   0  0  0  0  0  0  0  0  0  0  0  0
   29.2080    6.5895   65.1296 N   0  0  0  0  0  0  0  0  0  0  0  0
   28.3037    6.6262   64.3060 N   0  0  0  0  0  0  0  0  0  0  0  0
   27.4176    5.5287   63.9857 C   0  0  0  0  0  0  0  0  0  0  0  0
   27.4893    4.2398   64.5987 C   0  0  0  0  0  0  0  0  0  0  0  0
   26.4338    5.7734   62.9903 C   0  0  0  0  0  0  0  0  0  0  0  0
   28.3251    3.9686   65.4582 O   0  0  0  0  0  0  0  0  0  0  0  0
   26.6483    3.2849   64.2194 N   0  0  0  0  0  0  0  0  0  0  0  0
   25.5643    4.7432   62.6405 C   0  0  0  0  0  0  0  0  0  0  0  0
   25.6846    3.5016   63.2621 C   0  0  0  0  0  0  0  0  0  0  0  0
   24.8489    2.4948   62.9185 O   0  0  0  0  0  0  0  0  0  0  0  0
  1  2  2  0
  1  3  2  0
  1  4  1  0
  1  5  1  0
  5  6  2  0
  5  7  1  0
  6  8  1  0
  7  9  2  0
  8 10  2  0
 10 11  1  0
 11 12  2  0
 12 13  1  0
 13 14  2  0
 13 15  1  0
 14 16  1  0
 14 17  1  0
 15 18  2  0
 17 19  1  0
 19 20  2  0
  9 10  1  0
 18 19  1  0
M  CHG  1  16  -1
M  END
>  <Molecule Name>  (86) 
NVVKOBSVOCFOEN-IACNKJBUNA-M

>  <hs_clash>  (86) 
4.0

>  <hs_total>  (86) 
130.09093721573765

>  <Total Molweight>  (86) 
293.282

>  <cLogP>  (86) 
-1.8239

>  <H-Acceptors>  (86) 
8

>  <H-Donors>  (86) 
2

>  <Polar Surface Area>  (86) 
145.42

>  <Non-H Atoms>  (86) 
20

>  <sp3-Atoms>  (86) 
2

$$$$
NHOACLCXCKJMAK-GPQMBLKYNA-N
     RDKit          3D

 18 21  0  0  0  0  0  0  0  0999 V2000
   31.8352    7.8930   65.6664 N   0  0  0  0  0  0  0  0  0  0  0  0
   30.8562    8.2317   64.7928 C   0  0  0  0  0  0  0  0  0  0  0  0
   31.8257    6.6891   66.2816 C   0  0  0  0  0  0  0  0  0  0  0  0
   29.8106    7.3468   64.5148 C   0  0  0  0  0  0  0  0  0  0  0  0
   30.8012    5.7714   66.0349 C   0  0  0  0  0  0  0  0  0  0  0  0
   29.7821    6.1031   65.1436 C   0  0  0  0  0  0  0  0  0  0  0  0
   28.6679    5.1220   64.8588 C   0  0  0  0  0  0  0  0  0  0  0  0
   28.5620    3.8864   65.3775 N   0  0  0  0  0  0  0  0  0  0  0  0
   27.6228    5.3379   64.0581 C   0  0  0  0  0  0  0  0  0  0  0  0
   27.4004    3.4013   64.8184 N   0  0  0  0  0  0  0  0  0  0  0  0
   26.9234    4.2832   64.0808 C   0  0  0  0  0  0  0  0  0  0  0  0
   27.0767    6.4623   63.1629 C   0  0  0  0  0  0  0  0  0  0  0  0
   25.7296    4.3659   63.2259 C   0  0  0  0  0  0  0  0  0  0  0  0
   25.7816    5.6324   62.6721 C   0  0  0  0  0  0  0  0  0  0  0  0
   24.7168    3.4490   62.9690 C   0  0  0  0  0  0  0  0  0  0  0  0
   24.7856    6.0573   61.7956 C   0  0  0  0  0  0  0  0  0  0  0  0
   23.7080    3.8648   62.0829 C   0  0  0  0  0  0  0  0  0  0  0  0
   23.7428    5.1550   61.5048 C   0  0  0  0  0  0  0  0  0  0  0  0
  1  2  2  0
  1  3  1  0
  2  4  1  0
  3  5  2  0
  4  6  2  0
  6  7  1  0
  7  8  2  0
  7  9  1  0
  8 10  1  0
  9 11  2  0
  9 12  1  0
 11 13  1  0
 12 14  1  0
 13 15  2  0
 14 16  2  0
 15 17  1  0
 16 18  1  0
  5  6  1  0
 10 11  1  0
 13 14  1  0
 17 18  2  0
M  END
>  <Molecule Name>  (87) 
NHOACLCXCKJMAK-GPQMBLKYNA-N

>  <hs_clash>  (87) 
1.0

>  <hs_total>  (87) 
129.74557637272798

>  <Total Molweight>  (87) 
233.273

>  <cLogP>  (87) 
2.4118

>  <H-Acceptors>  (87) 
3

>  <H-Donors>  (87) 
1

>  <Polar Surface Area>  (87) 
41.57

>  <Non-H Atoms>  (87) 
18

>  <sp3-Atoms>  (87) 
1

$$$$
ZDFKJVWFYGHALK-HWHDIUAINA-N
     RDKit          3D

 25 27  0  0  0  0  0  0  0  0999 V2000
   33.2046   10.6240   64.7297 S   0  0  0  0  0  0  0  0  0  0  0  0
   34.2614   10.1515   63.8875 O   0  0  0  0  0  0  0  0  0  0  0  0
   33.7466   11.0910   65.9953 O   0  0  0  0  0  0  0  0  0  0  0  0
   32.4193   11.8910   63.9438 N   0  0  0  0  0  0  0  0  0  0  0  0
   32.1142    9.2687   65.0238 C   0  0  0  0  0  0  0  0  0  0  0  0
   31.2060    8.8461   64.0117 C   0  0  0  0  0  0  0  0  0  0  0  0
   32.1677    8.5895   66.2744 C   0  0  0  0  0  0  0  0  0  0  0  0
   30.3517    7.7401   64.2458 C   0  0  0  0  0  0  0  0  0  0  0  0
   31.3134    7.4836   66.5126 C   0  0  0  0  0  0  0  0  0  0  0  0
   30.3951    7.0362   65.5092 C   0  0  0  0  0  0  0  0  0  0  0  0
   29.6518    6.0031   65.8019 N   0  0  0  0  0  0  0  0  0  0  0  0
   28.6381    5.4979   65.1334 C   0  0  0  0  0  0  0  0  0  0  0  0
   27.6449    6.3724   64.0158 S   0  0  0  0  0  0  0  0  0  0  0  0
   28.3136    4.2468   65.2969 N   0  0  0  0  0  0  0  0  0  0  0  0
   26.7153    4.9514   63.7220 C   0  0  0  0  0  0  0  0  0  0  0  0
   27.2312    3.9237   64.5106 C   0  0  0  0  0  0  0  0  0  0  0  0
   25.6319    4.8363   62.8495 C   0  0  0  0  0  0  0  0  0  0  0  0
   26.7487    2.7569   64.5141 N   0  0  0  0  0  0  0  0  0  0  0  0
   24.9635    3.7995   62.8610 O   0  0  0  0  0  0  0  0  0  0  0  0
   25.2938    5.8454   61.9469 C   0  0  0  0  0  0  0  0  0  0  0  0
   23.9441    6.1680   61.7030 C   0  0  0  0  0  0  0  0  0  0  0  0
   26.2767    6.5998   61.2219 C   0  0  0  0  0  0  0  0  0  0  0  0
   23.5440    7.1516   60.8250 N   0  0  0  0  0  0  0  0  0  0  0  0
   25.8928    7.6177   60.3208 C   0  0  0  0  0  0  0  0  0  0  0  0
   24.5210    7.8625   60.1532 C   0  0  0  0  0  0  0  0  0  0  0  0
  1  2  2  0
  1  3  2  0
  1  4  1  0
  1  5  1  0
  5  6  2  0
  5  7  1  0
  6  8  1  0
  7  9  2  0
  8 10  2  0
 10 11  1  0
 11 12  1  0
 12 13  1  0
 12 14  2  0
 13 15  1  0
 14 16  1  0
 15 17  1  0
 16 18  1  0
 17 19  2  0
 17 20  1  0
 20 21  2  0
 20 22  1  0
 21 23  1  0
 22 24  2  0
 23 25  2  0
  9 10  1  0
 15 16  2  0
 24 25  1  0
M  END
>  <Molecule Name>  (88) 
ZDFKJVWFYGHALK-HWHDIUAINA-N

>  <hs_clash>  (88) 
3.0

>  <hs_total>  (88) 
129.73599840797638

>  <Total Molweight>  (88) 
375.432

>  <cLogP>  (88) 
1.4647

>  <H-Acceptors>  (88) 
8

>  <H-Donors>  (88) 
3

>  <Polar Surface Area>  (88) 
177.68

>  <Non-H Atoms>  (88) 
25

>  <sp3-Atoms>  (88) 
1

$$$$
CEXBEGBNDJVZPK-LUVCRWLHNA-M
     RDKit          3D

 28 31  0  0  0  0  0  0  0  0999 V2000
   26.0576    9.7863   62.6216 S   0  0  0  0  0  0  0  0  0  0  0  0
   25.2375    8.9170   63.4219 O   0  0  0  0  0  0  0  0  0  0  0  0
   26.3207   11.1251   63.0650 O   0  0  0  0  0  0  0  0  0  0  0  0
   27.5082    9.1054   62.3638 N   0  0  0  0  0  0  0  0  0  0  0  0
   25.5183    9.8019   60.9435 C   0  0  0  0  0  0  0  0  0  0  0  0
   28.2503    8.4044   63.2972 C   0  0  0  0  0  0  0  0  0  0  0  0
   27.9614    9.3221   60.9883 C   0  0  0  0  0  0  0  0  0  0  0  0
   26.8563   10.1393   60.2666 C   0  0  0  0  0  0  0  0  0  0  0  0
   27.8007    7.1055   63.6597 C   0  0  0  0  0  0  0  0  0  0  0  0
   29.4372    8.9213   63.8995 C   0  0  0  0  0  0  0  0  0  0  0  0
   26.6463    6.6061   63.0587 O   0  0  0  0  0  0  0  0  0  0  0  0
   28.5118    6.3253   64.6152 C   0  0  0  0  0  0  0  0  0  0  0  0
   30.1606    8.1384   64.8602 C   0  0  0  0  0  0  0  0  0  0  0  0
   26.1186    5.3625   63.3318 C   0  0  0  0  0  0  0  0  0  0  0  0
   27.9744    4.9681   64.9487 C   0  0  0  0  0  0  0  0  0  0  0  0
   29.6858    6.8463   65.2095 C   0  0  0  0  0  0  0  0  0  0  0  0
   31.4193    8.6647   65.5065 C   0  0  0  0  0  0  0  0  0  0  0  0
   26.7082    4.5057   64.2464 C   0  0  0  0  0  0  0  0  0  0  0  0
   24.9016    5.0632   62.5540 C   0  0  0  0  0  0  0  0  0  0  0  0
   28.4523    4.1513   65.7459 O   0  0  0  0  0  0  0  0  0  0  0  0
   26.2634    3.2488   64.5908 O   0  0  0  0  0  0  0  0  0  0  0  0
   24.0209    6.1452   62.2772 C   0  0  0  0  0  0  0  0  0  0  0  0
   24.5972    3.7521   62.0568 C   0  0  0  0  0  0  0  0  0  0  0  0
   22.8606    5.9301   61.5233 C   0  0  0  0  0  0  0  0  0  0  0  0
   23.4248    3.5280   61.2970 C   0  0  0  0  0  0  0  0  0  0  0  0
   21.9633    6.9529   61.2147 O   0  0  0  0  0  0  0  0  0  0  0  0
   22.5661    4.6140   61.0322 C   0  0  0  0  0  0  0  0  0  0  0  0
   21.4214    4.4531   60.2950 O   0  0  0  0  0  0  0  0  0  0  0  0
  1  2  2  0
  1  3  2  0
  1  4  1  0
  1  5  1  0
  4  6  1  0
  4  7  1  0
  5  8  1  0
  6  9  1  0
  6 10  2  0
  9 11  1  0
  9 12  2  0
 10 13  1  0
 11 14  1  0
 12 15  1  0
 12 16  1  0
 13 17  1  0
 14 18  2  0
 14 19  1  0
 15 20  2  0
 18 21  1  0
 19 22  2  0
 19 23  1  0
 22 24  1  0
 23 25  2  0
 24 26  1  0
 24 27  2  0
 27 28  1  0
  7  8  1  0
 13 16  2  0
 15 18  1  0
 25 27  1  0
M  CHG  1  21  -1
M  END
>  <Molecule Name>  (89) 
CEXBEGBNDJVZPK-LUVCRWLHNA-M

>  <hs_clash>  (89) 
6.0

>  <hs_total>  (89) 
129.4791642340766

>  <Total Molweight>  (89) 
402.402

>  <cLogP>  (89) 
-0.7275

>  <H-Acceptors>  (89) 
8

>  <H-Donors>  (89) 
2

>  <Polar Surface Area>  (89) 
135.58

>  <Non-H Atoms>  (89) 
28

>  <sp3-Atoms>  (89) 
9

$$$$
HSKWJUIRLWHLHC-WQZYCBLFNA-O
     RDKit          3D

 22 23  0  0  0  0  0  0  0  0999 V2000
   23.7531    7.2811   62.9842 O   0  0  0  0  0  0  0  0  0  0  0  0
   24.8101    8.0898   62.8794 N   0  0  0  0  0  0  0  0  0  0  0  0
   24.6238    9.3003   62.3373 O   0  0  0  0  0  0  0  0  0  0  0  0
   26.0675    7.6868   63.3175 C   0  0  0  0  0  0  0  0  0  0  0  0
   26.2585    6.3973   63.8959 C   0  0  0  0  0  0  0  0  0  0  0  0
   27.1906    8.5491   63.1983 C   0  0  0  0  0  0  0  0  0  0  0  0
   27.5445    5.9592   64.3508 C   0  0  0  0  0  0  0  0  0  0  0  0
   28.4732    8.1486   63.6325 C   0  0  0  0  0  0  0  0  0  0  0  0
   28.7026    6.8368   64.2251 C   0  0  0  0  0  0  0  0  0  0  0  0
   27.6119    4.5818   64.9291 C   0  0  0  0  0  0  0  0  0  0  0  0
   29.9011    6.4311   64.6376 N   0  0  0  0  0  0  0  0  0  0  0  0
   28.5056    4.3080   65.8767 O   0  0  0  0  0  0  0  0  0  0  0  0
   26.7927    3.5995   64.4984 N   0  0  0  0  0  0  0  0  0  0  0  0
   31.1930    7.1592   64.5414 C   0  0  0  0  0  0  0  0  0  0  0  0
   31.4098    8.1843   65.6280 C   0  0  0  0  0  0  0  0  0  0  0  0
   31.9256    9.4733   65.2847 C   0  0  0  0  0  0  0  0  0  0  0  0
   31.1122    7.8961   66.9935 C   0  0  0  0  0  0  0  0  0  0  0  0
   32.1377   10.4564   66.2823 C   0  0  0  0  0  0  0  0  0  0  0  0
   31.3231    8.8783   67.9982 C   0  0  0  0  0  0  0  0  0  0  0  0
   31.8403   10.1794   67.6586 C   0  0  0  0  0  0  0  0  0  0  0  0
   32.0626   11.1759   68.5939 C   0  0  0  0  0  0  0  0  0  0  0  0
   33.4806   11.3624   68.9059 N   0  0  0  0  0  0  0  0  0  0  0  0
  1  2  2  0
  2  3  1  0
  2  4  1  0
  4  5  2  0
  4  6  1  0
  5  7  1  0
  6  8  2  0
  7  9  2  0
  7 10  1  0
  9 11  1  0
 10 12  2  0
 10 13  1  0
 11 14  1  0
 14 15  1  0
 15 16  2  0
 15 17  1  0
 16 18  1  0
 17 19  2  0
 18 20  2  0
 20 21  1  0
 21 22  1  0
  8  9  1  0
 19 20  1  0
M  CHG  3   2   1   3  -1  22   1
M  END
>  <Molecule Name>  (90) 
HSKWJUIRLWHLHC-WQZYCBLFNA-O

>  <hs_clash>  (90) 
0.0

>  <hs_total>  (90) 
128.65606549036522

>  <Total Molweight>  (90) 
301.325

>  <cLogP>  (90) 
0.368

>  <H-Acceptors>  (90) 
7

>  <H-Donors>  (90) 
3

>  <Polar Surface Area>  (90) 
128.58

>  <Non-H Atoms>  (90) 
22

>  <sp3-Atoms>  (90) 
4

$$$$
HEKMYKTWCKGDFA-VNHAUOCNNA-N
     RDKit          3D

 25 27  0  0  0  0  0  0  0  0999 V2000
   32.4413    9.7670   67.9597 S   0  0  0  0  0  0  0  0  0  0  0  0
   33.8345    9.9971   67.6028 O   0  0  0  0  0  0  0  0  0  0  0  0
   31.8079   11.0292   68.3358 O   0  0  0  0  0  0  0  0  0  0  0  0
   32.3709    8.6585   69.2271 N   0  0  0  0  0  0  0  0  0  0  0  0
   31.6013    9.0964   66.5414 C   0  0  0  0  0  0  0  0  0  0  0  0
   31.0222    7.8094   66.6208 C   0  0  0  0  0  0  0  0  0  0  0  0
   31.5181    9.8546   65.3425 C   0  0  0  0  0  0  0  0  0  0  0  0
   30.3493    7.2455   65.5066 C   0  0  0  0  0  0  0  0  0  0  0  0
   30.8522    9.3124   64.2060 C   0  0  0  0  0  0  0  0  0  0  0  0
   29.8425    6.0493   65.6518 N   0  0  0  0  0  0  0  0  0  0  0  0
   30.2713    8.0113   64.2847 C   0  0  0  0  0  0  0  0  0  0  0  0
   28.8315    5.5232   65.0357 C   0  0  0  0  0  0  0  0  0  0  0  0
   27.7329    6.3979   64.0158 S   0  0  0  0  0  0  0  0  0  0  0  0
   28.5766    4.2322   65.1568 N   0  0  0  0  0  0  0  0  0  0  0  0
   26.8565    4.9552   63.6949 C   0  0  0  0  0  0  0  0  0  0  0  0
   27.4558    3.9014   64.3989 C   0  0  0  0  0  0  0  0  0  0  0  0
   25.7340    4.8566   62.8605 C   0  0  0  0  0  0  0  0  0  0  0  0
   27.0181    2.7103   64.3468 N   0  0  0  0  0  0  0  0  0  0  0  0
   25.0554    3.8400   62.8796 O   0  0  0  0  0  0  0  0  0  0  0  0
   25.3768    5.8849   61.9950 C   0  0  0  0  0  0  0  0  0  0  0  0
   26.3193    6.4354   61.0632 C   0  0  0  0  0  0  0  0  0  0  0  0
   24.0480    6.4086   62.0258 C   0  0  0  0  0  0  0  0  0  0  0  0
   25.9330    7.4897   60.1884 C   0  0  0  0  0  0  0  0  0  0  0  0
   23.6680    7.4628   61.1461 C   0  0  0  0  0  0  0  0  0  0  0  0
   24.6123    8.0015   60.2313 C   0  0  0  0  0  0  0  0  0  0  0  0
  1  2  2  0
  1  3  2  0
  1  4  1  0
  1  5  1  0
  5  6  2  0
  5  7  1  0
  6  8  1  0
  7  9  2  0
  8 10  1  0
  8 11  2  0
 10 12  1  0
 12 13  1  0
 12 14  2  0
 13 15  1  0
 14 16  1  0
 15 17  1  0
 16 18  1  0
 17 19  2  0
 17 20  1  0
 20 21  2  0
 20 22  1  0
 21 23  1  0
 22 24  2  0
 23 25  2  0
  9 11  1  0
 15 16  2  0
 24 25  1  0
M  END
>  <Molecule Name>  (91) 
HEKMYKTWCKGDFA-VNHAUOCNNA-N

>  <hs_clash>  (91) 
0.0

>  <hs_total>  (91) 
128.27649597906864

>  <Total Molweight>  (91) 
374.444

>  <cLogP>  (91) 
2.4656

>  <H-Acceptors>  (91) 
7

>  <H-Donors>  (91) 
3

>  <Polar Surface Area>  (91) 
164.79

>  <Non-H Atoms>  (91) 
25

>  <sp3-Atoms>  (91) 
1

$$$$
KYYOHACAJWYNOT-XBXBPLPCNA-N
     RDKit          3D

 28 31  0  0  0  0  0  0  0  0999 V2000
   29.7002    8.0232   64.1118 O   0  0  0  0  0  0  0  0  0  0  0  0
   30.2846    7.3261   64.9416 C   0  0  0  0  0  0  0  0  0  0  0  0
   29.8884    6.1338   65.4042 N   0  0  0  0  0  0  0  0  0  0  0  0
   31.5968    7.8122   65.5604 C   0  0  0  0  0  0  0  0  0  0  0  0
   28.8309    5.3685   65.0879 C   0  0  0  0  0  0  0  0  0  0  0  0
   31.3800    8.2775   67.0001 C   0  0  0  0  0  0  0  0  0  0  0  0
   28.6946    4.1532   65.6106 N   0  0  0  0  0  0  0  0  0  0  0  0
   27.7622    5.5761   64.2183 C   0  0  0  0  0  0  0  0  0  0  0  0
   32.5389    9.1490   67.4811 C   0  0  0  0  0  0  0  0  0  0  0  0
   27.6882    3.5925   65.1642 N   0  0  0  0  0  0  0  0  0  0  0  0
   27.0468    4.3892   64.3116 C   0  0  0  0  0  0  0  0  0  0  0  0
   27.3071    6.5890   63.3677 C   0  0  0  0  0  0  0  0  0  0  0  0
   25.8976    4.2042   63.5453 C   0  0  0  0  0  0  0  0  0  0  0  0
   26.1494    6.4267   62.5925 C   0  0  0  0  0  0  0  0  0  0  0  0
   25.4328    5.2055   62.6861 C   0  0  0  0  0  0  0  0  0  0  0  0
   25.8137    7.4687   61.7092 C   0  0  0  0  0  0  0  0  0  0  0  0
   24.2719    4.9161   61.9720 C   0  0  0  0  0  0  0  0  0  0  0  0
   25.4816    8.7542   62.1734 C   0  0  0  0  0  0  0  0  0  0  0  0
   25.8675    7.2418   60.3236 C   0  0  0  0  0  0  0  0  0  0  0  0
   24.1446    3.6286   61.4456 C   0  0  0  0  0  0  0  0  0  0  0  0
   23.2340    5.8423   61.8192 C   0  0  0  0  0  0  0  0  0  0  0  0
   25.1660    9.7884   61.2713 C   0  0  0  0  0  0  0  0  0  0  0  0
   25.5621    8.2662   59.4236 C   0  0  0  0  0  0  0  0  0  0  0  0
   23.0317    3.2844   60.6910 C   0  0  0  0  0  0  0  0  0  0  0  0
   22.1241    5.4960   61.0449 C   0  0  0  0  0  0  0  0  0  0  0  0
   25.2061    9.5384   59.8959 C   0  0  0  0  0  0  0  0  0  0  0  0
   22.0166    4.2158   60.5013 C   0  0  0  0  0  0  0  0  0  0  0  0
   20.9191    3.8564   59.7887 O   0  0  0  0  0  0  0  0  0  0  0  0
  1  2  2  0
  2  3  1  0
  2  4  1  0
  3  5  1  0
  4  6  1  0
  5  7  2  0
  5  8  1  0
  6  9  1  0
  7 10  1  0
  8 11  2  0
  8 12  1  0
 11 13  1  0
 12 14  2  0
 13 15  2  0
 14 16  1  0
 15 17  1  0
 16 18  2  0
 16 19  1  0
 17 20  2  0
 17 21  1  0
 18 22  1  0
 19 23  2  0
 20 24  1  0
 21 25  2  0
 22 26  2  0
 24 27  2  0
 27 28  1  0
 10 11  1  0
 14 15  1  0
 23 26  1  0
 25 27  1  0
M  END
>  <Molecule Name>  (92) 
KYYOHACAJWYNOT-XBXBPLPCNA-N

>  <hs_clash>  (92) 
1.0

>  <hs_total>  (92) 
126.7524922474679

>  <Total Molweight>  (92) 
371.439

>  <cLogP>  (92) 
4.8067

>  <H-Acceptors>  (92) 
5

>  <H-Donors>  (92) 
3

>  <Polar Surface Area>  (92) 
78.01

>  <Non-H Atoms>  (92) 
28

>  <sp3-Atoms>  (92) 
4

$$$$
GAZJAWWHSQBFHM-GPQMBLKYNA-N
     RDKit          3D

 21 23  0  0  0  0  0  0  0  0999 V2000
   27.6472    6.5413   64.0304 S   0  0  0  0  0  0  0  0  0  0  0  0
   28.6526    5.7088   65.1831 C   0  0  0  0  0  0  0  0  0  0  0  0
   26.7786    5.0271   63.7683 C   0  0  0  0  0  0  0  0  0  0  0  0
   28.3477    4.4339   65.3480 N   0  0  0  0  0  0  0  0  0  0  0  0
   29.6702    6.3421   65.8280 N   0  0  0  0  0  0  0  0  0  0  0  0
   27.2866    4.0349   64.5474 C   0  0  0  0  0  0  0  0  0  0  0  0
   25.6534    4.9282   62.7992 C   0  0  0  0  0  0  0  0  0  0  0  0
   30.1500    7.6949   65.7291 C   0  0  0  0  0  0  0  0  0  0  0  0
   26.8344    2.7333   64.5778 N   0  0  0  0  0  0  0  0  0  0  0  0
   24.9787    3.8768   62.7665 O   0  0  0  0  0  0  0  0  0  0  0  0
   25.3481    6.0633   61.8632 C   0  0  0  0  0  0  0  0  0  0  0  0
   31.0643    7.8042   64.4559 C   0  0  0  0  0  0  0  0  0  0  0  0
   30.9539    8.1100   66.9934 C   0  0  0  0  0  0  0  0  0  0  0  0
   23.9854    6.4643   61.6549 C   0  0  0  0  0  0  0  0  0  0  0  0
   26.3665    6.7864   61.1372 C   0  0  0  0  0  0  0  0  0  0  0  0
   31.6312    9.2345   64.2895 C   0  0  0  0  0  0  0  0  0  0  0  0
   31.4772    9.5671   66.8447 C   0  0  0  0  0  0  0  0  0  0  0  0
   23.6310    7.4939   60.8101 N   0  0  0  0  0  0  0  0  0  0  0  0
   26.0039    7.8565   60.2632 C   0  0  0  0  0  0  0  0  0  0  0  0
   32.3708    9.7087   65.5786 C   0  0  0  0  0  0  0  0  0  0  0  0
   24.6143    8.1738   60.1334 C   0  0  0  0  0  0  0  0  0  0  0  0
  1  2  1  0
  1  3  1  0
  2  4  2  0
  2  5  1  0
  3  6  2  0
  3  7  1  0
  5  8  1  0
  6  9  1  0
  7 10  2  0
  7 11  1  0
  8 12  1  0
  8 13  1  0
 11 14  2  0
 11 15  1  0
 12 16  1  0
 13 17  1  0
 14 18  1  0
 15 19  2  0
 16 20  1  0
 18 21  2  0
  4  6  1  0
 17 20  1  0
 19 21  1  0
M  END
>  <Molecule Name>  (93) 
GAZJAWWHSQBFHM-GPQMBLKYNA-N

>  <hs_clash>  (93) 
0.0

>  <hs_total>  (93) 
126.54258041419908

>  <Total Molweight>  (93) 
302.401

>  <cLogP>  (93) 
2.373

>  <H-Acceptors>  (93) 
5

>  <H-Donors>  (93) 
2

>  <Polar Surface Area>  (93) 
109.14

>  <Non-H Atoms>  (93) 
21

>  <sp3-Atoms>  (93) 
6

$$$$
WHRVUTPLBUMBMW-YGPBECBDNA-N
     RDKit          3D

 20 21  0  0  0  0  0  0  0  0999 V2000
   24.8800    9.3562   62.7050 O   0  0  0  0  0  0  0  0  0  0  0  0
   25.0933    8.0950   63.0184 N   0  0  0  0  0  0  0  0  0  0  0  0
   24.1000    7.2230   62.8499 O   0  0  0  0  0  0  0  0  0  0  0  0
   26.2438    7.7236   63.4802 C   0  0  0  0  0  0  0  0  0  0  0  0
   26.4230    6.4061   64.0076 C   0  0  0  0  0  0  0  0  0  0  0  0
   27.3512    8.6204   63.4697 C   0  0  0  0  0  0  0  0  0  0  0  0
   27.6846    5.9670   64.5236 C   0  0  0  0  0  0  0  0  0  0  0  0
   28.6152    8.2130   63.9751 C   0  0  0  0  0  0  0  0  0  0  0  0
   28.8095    6.8856   64.5107 C   0  0  0  0  0  0  0  0  0  0  0  0
   27.7831    4.6662   65.0137 C   0  0  0  0  0  0  0  0  0  0  0  0
   29.9689    6.5120   64.9765 N   0  0  0  0  0  0  0  0  0  0  0  0
   28.6053    4.3632   65.8443 O   0  0  0  0  0  0  0  0  0  0  0  0
   26.9386    3.6861   64.5390 N   0  0  0  0  0  0  0  0  0  0  0  0
   31.2478    7.2805   64.7739 C   0  0  0  0  0  0  0  0  0  0  0  0
   31.5627    8.2053   65.9457 C   0  0  0  0  0  0  0  0  0  0  0  0
   32.4144    9.2693   65.7173 N   0  0  0  0  0  0  0  0  0  0  0  0
   30.9828    7.9536   67.2117 C   0  0  0  0  0  0  0  0  0  0  0  0
   32.6992   10.1066   66.7754 C   0  0  0  0  0  0  0  0  0  0  0  0
   31.2942    8.8347   68.2781 C   0  0  0  0  0  0  0  0  0  0  0  0
   32.1624    9.9298   68.0722 C   0  0  0  0  0  0  0  0  0  0  0  0
  1  2  2  0
  2  3  1  0
  2  4  1  0
  4  5  2  0
  4  6  1  0
  5  7  1  0
  6  8  2  0
  7  9  2  0
  7 10  1  0
  9 11  1  0
 10 12  2  0
 10 13  1  0
 11 14  1  0
 14 15  1  0
 15 16  2  0
 15 17  1  0
 16 18  1  0
 17 19  2  0
 18 20  2  0
  8  9  1  0
 19 20  1  0
M  CHG  2   2   1   3  -1
M  END
>  <Molecule Name>  (94) 
WHRVUTPLBUMBMW-YGPBECBDNA-N

>  <hs_clash>  (94) 
0.0

>  <hs_total>  (94) 
126.53536261856482

>  <Total Molweight>  (94) 
272.263

>  <cLogP>  (94) 
-0.0565

>  <H-Acceptors>  (94) 
7

>  <H-Donors>  (94) 
2

>  <Polar Surface Area>  (94) 
113.83

>  <Non-H Atoms>  (94) 
20

>  <sp3-Atoms>  (94) 
2

$$$$
KOFQZAVTXLVRJI-YHMJCDSINA-N
     RDKit          3D

 18 19  0  0  0  0  0  0  0  0999 V2000
   25.4203    9.3311   58.3054 Cl  0  0  0  0  0  0  0  0  0  0  0  0
   25.8078    8.6037   59.8434 C   0  0  0  0  0  0  0  0  0  0  0  0
   25.8208    6.9169   60.0183 S   0  0  0  0  0  0  0  0  0  0  0  0
   26.1180    9.2632   60.9997 C   0  0  0  0  0  0  0  0  0  0  0  0
   26.2491    7.0148   61.6978 C   0  0  0  0  0  0  0  0  0  0  0  0
   26.3753    8.3502   62.0802 C   0  0  0  0  0  0  0  0  0  0  0  0
   26.4105    5.7437   62.4637 C   0  0  0  0  0  0  0  0  0  0  0  0
   25.7419    4.7423   62.1605 O   0  0  0  0  0  0  0  0  0  0  0  0
   27.3736    5.6327   63.5520 C   0  0  0  0  0  0  0  0  0  0  0  0
   28.3090    6.9221   64.1523 S   0  0  0  0  0  0  0  0  0  0  0  0
   27.7129    4.5184   64.2731 C   0  0  0  0  0  0  0  0  0  0  0  0
   29.0725    5.8670   65.3074 C   0  0  0  0  0  0  0  0  0  0  0  0
   28.6560    4.6157   65.2601 N   0  0  0  0  0  0  0  0  0  0  0  0
   27.2645    3.2567   64.1829 N   0  0  0  0  0  0  0  0  0  0  0  0
   30.0248    6.2545   66.1971 N   0  0  0  0  0  0  0  0  0  0  0  0
   30.4699    7.6340   66.3631 C   0  0  0  0  0  0  0  0  0  0  0  0
   31.8250    7.6895   67.0747 C   0  0  0  0  0  0  0  0  0  0  0  0
   32.2944    9.1221   67.2558 C   0  0  0  0  0  0  0  0  0  0  0  0
  1  2  1  0
  2  3  1  0
  2  4  2  0
  3  5  1  0
  4  6  1  0
  5  7  1  0
  7  8  2  0
  7  9  1  0
  9 10  1  0
  9 11  2  0
 10 12  1  0
 11 13  1  0
 11 14  1  0
 12 15  1  0
 15 16  1  0
 16 17  1  0
 17 18  2  0
  5  6  2  0
 12 13  2  0
M  END
>  <Molecule Name>  (95) 
KOFQZAVTXLVRJI-YHMJCDSINA-N

>  <hs_clash>  (95) 
0.0

>  <hs_total>  (95) 
126.32329622050607

>  <Total Molweight>  (95) 
299.805

>  <cLogP>  (95) 
3.1707

>  <H-Acceptors>  (95) 
4

>  <H-Donors>  (95) 
2

>  <Polar Surface Area>  (95) 
124.49

>  <Non-H Atoms>  (95) 
18

>  <sp3-Atoms>  (95) 
1

$$$$
PDIHMNDWUQWWNQ-YAQRNVERNA-N
     RDKit          3D

 18 19  0  0  0  0  0  0  0  0999 V2000
   27.6573    6.4779   64.0744 S   0  0  0  0  0  0  0  0  0  0  0  0
   28.6142    5.6707   65.2186 C   0  0  0  0  0  0  0  0  0  0  0  0
   26.7906    5.0340   63.8394 C   0  0  0  0  0  0  0  0  0  0  0  0
   28.2834    4.3665   65.4174 N   0  0  0  0  0  0  0  0  0  0  0  0
   29.6634    6.2498   65.9201 N   0  0  0  0  0  0  0  0  0  0  0  0
   27.2528    4.0223   64.6376 C   0  0  0  0  0  0  0  0  0  0  0  0
   25.6478    4.8905   62.8584 C   0  0  0  0  0  0  0  0  0  0  0  0
   30.2278    7.5548   65.5251 C   0  0  0  0  0  0  0  0  0  0  0  0
   26.7627    2.8269   64.6433 N   0  0  0  0  0  0  0  0  0  0  0  0
   25.0270    3.6924   62.7754 O   0  0  0  0  0  0  0  0  0  0  0  0
   25.1890    5.9819   61.9633 C   0  0  0  0  0  0  0  0  0  0  0  0
   31.0825    8.0848   66.7109 C   0  0  0  0  0  0  0  0  0  0  0  0
   31.1243    7.4069   64.2685 C   0  0  0  0  0  0  0  0  0  0  0  0
   23.7838    6.2893   61.7894 C   0  0  0  0  0  0  0  0  0  0  0  0
   26.1668    6.7603   61.2146 C   0  0  0  0  0  0  0  0  0  0  0  0
   23.4279    7.3482   60.9011 N   0  0  0  0  0  0  0  0  0  0  0  0
   25.7590    7.8225   60.3277 C   0  0  0  0  0  0  0  0  0  0  0  0
   24.3698    8.1027   60.1864 C   0  0  0  0  0  0  0  0  0  0  0  0
  1  2  1  0
  1  3  1  0
  2  4  2  0
  2  5  1  0
  3  6  2  0
  3  7  1  0
  5  8  1  0
  6  9  1  0
  7 10  2  0
  7 11  1  0
  8 12  1  0
  8 13  1  0
 11 14  2  0
 11 15  1  0
 14 16  1  0
 15 17  2  0
 16 18  2  0
  4  6  1  0
 17 18  1  0
M  END
>  <Molecule Name>  (96) 
PDIHMNDWUQWWNQ-YAQRNVERNA-N

>  <hs_clash>  (96) 
0.0

>  <hs_total>  (96) 
126.15969942890382

>  <Total Molweight>  (96) 
262.336

>  <cLogP>  (96) 
1.5829

>  <H-Acceptors>  (96) 
5

>  <H-Donors>  (96) 
2

>  <Polar Surface Area>  (96) 
109.14

>  <Non-H Atoms>  (96) 
18

>  <sp3-Atoms>  (96) 
3

$$$$
ZHMRPXZRUZLCNL-HEBYQKOSNA-N
     RDKit          3D

 20 22  0  0  0  0  0  0  0  0999 V2000
   25.8133    7.6072   63.6576 O   0  0  0  0  0  0  0  0  0  0  0  0
   26.4966    6.5759   64.2548 C   0  0  0  0  0  0  0  0  0  0  0  0
   26.5023    8.7397   63.1144 C   0  0  0  0  0  0  0  0  0  0  0  0
   26.0446    5.1586   64.2147 C   0  0  0  0  0  0  0  0  0  0  0  0
   27.6960    6.8103   64.9300 C   0  0  0  0  0  0  0  0  0  0  0  0
   25.7488    9.2755   61.8975 C   0  0  0  0  0  0  0  0  0  0  0  0
   26.8546    4.1645   64.9310 C   0  0  0  0  0  0  0  0  0  0  0  0
   24.8435    4.4859   63.7592 C   0  0  0  0  0  0  0  0  0  0  0  0
   28.4060    5.7853   65.5553 C   0  0  0  0  0  0  0  0  0  0  0  0
   26.0181    8.4124   60.6788 C   0  0  0  0  0  0  0  0  0  0  0  0
   28.0102    4.4998   65.5587 N   0  0  0  0  0  0  0  0  0  0  0  0
   26.2617    2.9382   64.8106 N   0  0  0  0  0  0  0  0  0  0  0  0
   23.8895    4.8366   62.6639 C   0  0  0  0  0  0  0  0  0  0  0  0
   25.1056    3.0283   64.0756 C   0  0  0  0  0  0  0  0  0  0  0  0
   23.2754    3.8398   61.9804 N   0  0  0  0  0  0  0  0  0  0  0  0
   23.4851    6.1537   62.4556 C   0  0  0  0  0  0  0  0  0  0  0  0
   22.3435    4.1007   61.0395 C   0  0  0  0  0  0  0  0  0  0  0  0
   22.5286    6.4049   61.4751 C   0  0  0  0  0  0  0  0  0  0  0  0
   21.9677    5.3805   60.7977 N   0  0  0  0  0  0  0  0  0  0  0  0
   21.7820    3.0731   60.3553 N   0  0  0  0  0  0  0  0  0  0  0  0
  1  2  1  0
  1  3  1  0
  2  4  2  0
  2  5  1  0
  3  6  1  0
  4  7  1  0
  4  8  1  0
  5  9  2  0
  6 10  1  0
  7 11  2  0
  7 12  1  0
  8 13  1  0
  8 14  2  0
 13 15  2  0
 13 16  1  0
 15 17  1  0
 16 18  2  0
 17 19  2  0
 17 20  1  0
  9 11  1  0
 12 14  1  0
 18 19  1  0
M  END
>  <Molecule Name>  (97) 
ZHMRPXZRUZLCNL-HEBYQKOSNA-N

>  <hs_clash>  (97) 
1.0

>  <hs_total>  (97) 
125.3888778669488

>  <Total Molweight>  (97) 
269.307

>  <cLogP>  (97) 
1.6509

>  <H-Acceptors>  (97) 
6

>  <H-Donors>  (97) 
2

>  <Polar Surface Area>  (97) 
89.71

>  <Non-H Atoms>  (97) 
20

>  <sp3-Atoms>  (97) 
4

$$$$
SIHPQWGESUQLJI-VNHAUOCNNA-N
     RDKit          3D

 25 27  0  0  0  0  0  0  0  0999 V2000
   33.1313   10.5010   64.7000 S   0  0  0  0  0  0  0  0  0  0  0  0
   34.3100    9.9652   63.7619 O   0  0  0  0  0  0  0  0  0  0  0  0
   33.6959   11.0401   66.1074 O   0  0  0  0  0  0  0  0  0  0  0  0
   32.3623   11.6340   63.9479 N   0  0  0  0  0  0  0  0  0  0  0  0
   32.1541    9.2635   64.9695 C   0  0  0  0  0  0  0  0  0  0  0  0
   31.1090    8.9446   64.0291 C   0  0  0  0  0  0  0  0  0  0  0  0
   32.3377    8.4526   66.1663 C   0  0  0  0  0  0  0  0  0  0  0  0
   30.2712    7.8373   64.2811 C   0  0  0  0  0  0  0  0  0  0  0  0
   31.5049    7.3436   66.4242 C   0  0  0  0  0  0  0  0  0  0  0  0
   30.4450    6.9987   65.4876 C   0  0  0  0  0  0  0  0  0  0  0  0
   29.6677    5.8997   65.7858 N   0  0  0  0  0  0  0  0  0  0  0  0
   28.6157    5.3671   65.0798 C   0  0  0  0  0  0  0  0  0  0  0  0
   27.5914    6.1820   63.9485 S   0  0  0  0  0  0  0  0  0  0  0  0
   28.3150    4.0797   65.2565 N   0  0  0  0  0  0  0  0  0  0  0  0
   26.7554    4.7234   63.7203 C   0  0  0  0  0  0  0  0  0  0  0  0
   27.2628    3.7148   64.4965 C   0  0  0  0  0  0  0  0  0  0  0  0
   25.6092    4.5927   62.7706 C   0  0  0  0  0  0  0  0  0  0  0  0
   26.7833    2.4555   64.5072 N   0  0  0  0  0  0  0  0  0  0  0  0
   24.9911    3.4050   62.6640 O   0  0  0  0  0  0  0  0  0  0  0  0
   25.1674    5.7353   61.9349 C   0  0  0  0  0  0  0  0  0  0  0  0
   23.7672    6.1331   61.8964 C   0  0  0  0  0  0  0  0  0  0  0  0
   26.1500    6.4741   61.1203 C   0  0  0  0  0  0  0  0  0  0  0  0
   23.3557    7.2343   61.0784 C   0  0  0  0  0  0  0  0  0  0  0  0
   25.7445    7.5792   60.3001 C   0  0  0  0  0  0  0  0  0  0  0  0
   24.3225    7.9702   60.2762 C   0  0  0  0  0  0  0  0  0  0  0  0
  1  2  2  0
  1  3  2  0
  1  4  1  0
  1  5  1  0
  5  6  2  0
  5  7  1  0
  6  8  1  0
  7  9  2  0
  8 10  2  0
 10 11  1  0
 11 12  1  0
 12 13  1  0
 12 14  2  0
 13 15  1  0
 14 16  1  0
 15 17  1  0
 16 18  1  0
 17 19  2  0
 17 20  1  0
 20 21  2  0
 20 22  1  0
 21 23  1  0
 22 24  2  0
 23 25  2  0
  9 10  1  0
 15 16  2  0
 24 25  1  0
M  END
>  <Molecule Name>  (98) 
SIHPQWGESUQLJI-VNHAUOCNNA-N

>  <hs_clash>  (98) 
1.0

>  <hs_total>  (98) 
125.19189326484877

>  <Total Molweight>  (98) 
374.444

>  <cLogP>  (98) 
2.4656

>  <H-Acceptors>  (98) 
7

>  <H-Donors>  (98) 
3

>  <Polar Surface Area>  (98) 
164.79

>  <Non-H Atoms>  (98) 
25

>  <sp3-Atoms>  (98) 
1

$$$$
OUEGMEMDEAOAEG-XBTAAFKLNA-N
     RDKit          3D

 25 28  0  0  0  0  0  0  0  0999 V2000
   29.8222   10.1440   62.9621 Cl  0  0  0  0  0  0  0  0  0  0  0  0
   30.2123    9.2627   64.4011 C   0  0  0  0  0  0  0  0  0  0  0  0
   29.5653    8.0439   64.6869 C   0  0  0  0  0  0  0  0  0  0  0  0
   31.1612    9.8043   65.2785 C   0  0  0  0  0  0  0  0  0  0  0  0
   29.8592    7.3244   65.8629 C   0  0  0  0  0  0  0  0  0  0  0  0
   31.4656    9.1041   66.4532 C   0  0  0  0  0  0  0  0  0  0  0  0
   29.6035    5.9701   65.9931 N   0  0  0  0  0  0  0  0  0  0  0  0
   30.7986    7.8952   66.7214 C   0  0  0  0  0  0  0  0  0  0  0  0
   28.4769    5.4685   65.5174 C   0  0  0  0  0  0  0  0  0  0  0  0
   27.6349    6.4311   64.7995 N   0  0  0  0  0  0  0  0  0  0  0  0
   28.0042    4.2832   65.5438 N   0  0  0  0  0  0  0  0  0  0  0  0
   26.5589    6.2297   64.2100 C   0  0  0  0  0  0  0  0  0  0  0  0
   26.7510    3.9263   64.9059 C   0  0  0  0  0  0  0  0  0  0  0  0
   25.8261    7.0969   63.5111 O   0  0  0  0  0  0  0  0  0  0  0  0
   26.0461    4.8656   64.2800 C   0  0  0  0  0  0  0  0  0  0  0  0
   26.0893    2.7903   64.8165 N   0  0  0  0  0  0  0  0  0  0  0  0
   26.2942    8.4674   63.4455 C   0  0  0  0  0  0  0  0  0  0  0  0
   24.8954    4.1735   63.7680 N   0  0  0  0  0  0  0  0  0  0  0  0
   24.9971    2.9490   64.1457 C   0  0  0  0  0  0  0  0  0  0  0  0
   25.3106    9.1959   62.4569 C   0  0  0  0  0  0  0  0  0  0  0  0
   25.5123   10.7479   62.6311 C   0  0  0  0  0  0  0  0  0  0  0  0
   25.6051    8.8026   60.9904 C   0  0  0  0  0  0  0  0  0  0  0  0
   24.6016   11.4529   61.5974 C   0  0  0  0  0  0  0  0  0  0  0  0
   24.6967    9.4950   59.9518 C   0  0  0  0  0  0  0  0  0  0  0  0
   24.7263   11.0525   60.1346 C   0  0  0  0  0  0  0  0  0  0  0  0
  1  2  1  0
  2  3  2  0
  2  4  1  0
  3  5  1  0
  4  6  2  0
  5  7  1  0
  5  8  2  0
  7  9  1  0
  9 10  2  0
  9 11  1  0
 10 12  1  0
 11 13  2  0
 12 14  1  0
 12 15  2  0
 13 16  1  0
 14 17  1  0
 15 18  1  0
 16 19  1  0
 17 20  1  0
 20 21  1  0
 20 22  1  0
 21 23  1  0
 22 24  1  0
 23 25  1  0
  6  8  1  0
 13 15  1  0
 18 19  2  0
 24 25  1  0
M  END
>  <Molecule Name>  (99) 
OUEGMEMDEAOAEG-XBTAAFKLNA-N

>  <hs_clash>  (99) 
0.0

>  <hs_total>  (99) 
124.96882692274303

>  <Total Molweight>  (99) 
357.844

>  <cLogP>  (99) 
4.5166

>  <H-Acceptors>  (99) 
6

>  <H-Donors>  (99) 
2

>  <Polar Surface Area>  (99) 
75.72

>  <Non-H Atoms>  (99) 
25

>  <sp3-Atoms>  (99) 
8

$$$$
WGVVIVGNBSSANI-NPVYFSBINA-N
     RDKit          3D

 22 24  0  0  0  0  0  0  0  0999 V2000
   23.9182    4.4876   61.6498 Cl  0  0  0  0  0  0  0  0  0  0  0  0
   25.2477    4.9327   62.6676 C   0  0  0  0  0  0  0  0  0  0  0  0
   25.8045    6.2205   62.6185 C   0  0  0  0  0  0  0  0  0  0  0  0
   25.7401    3.9912   63.5748 C   0  0  0  0  0  0  0  0  0  0  0  0
   25.3720    7.1481   61.6709 C   0  0  0  0  0  0  0  0  0  0  0  0
   26.8876    6.5329   63.4492 C   0  0  0  0  0  0  0  0  0  0  0  0
   26.7883    4.3318   64.4335 C   0  0  0  0  0  0  0  0  0  0  0  0
   26.1969    7.4402   60.5776 C   0  0  0  0  0  0  0  0  0  0  0  0
   24.1288    7.7791   61.7839 C   0  0  0  0  0  0  0  0  0  0  0  0
   27.3580    5.6005   64.3863 C   0  0  0  0  0  0  0  0  0  0  0  0
   27.4723    3.6279   65.3309 N   0  0  0  0  0  0  0  0  0  0  0  0
   25.7816    8.3489   59.5993 C   0  0  0  0  0  0  0  0  0  0  0  0
   23.7184    8.7008   60.8124 C   0  0  0  0  0  0  0  0  0  0  0  0
   28.3935    5.5296   65.3179 C   0  0  0  0  0  0  0  0  0  0  0  0
   28.3386    4.3254   65.8800 N   0  0  0  0  0  0  0  0  0  0  0  0
   24.5373    8.9769   59.7121 C   0  0  0  0  0  0  0  0  0  0  0  0
   29.2451    6.4755   65.7660 N   0  0  0  0  0  0  0  0  0  0  0  0
   29.3948    7.7481   65.3629 C   0  0  0  0  0  0  0  0  0  0  0  0
   28.7592    8.3101   64.4713 O   0  0  0  0  0  0  0  0  0  0  0  0
   30.4629    8.5338   66.1356 C   0  0  0  0  0  0  0  0  0  0  0  0
   31.8459    8.4845   65.4738 C   0  0  0  0  0  0  0  0  0  0  0  0
   31.7895    8.7746   63.9687 C   0  0  0  0  0  0  0  0  0  0  0  0
  1  2  1  0
  2  3  2  0
  2  4  1  0
  3  5  1  0
  3  6  1  0
  4  7  2  0
  5  8  2  0
  5  9  1  0
  6 10  2  0
  7 11  1  0
  8 12  1  0
  9 13  2  0
 10 14  1  0
 11 15  1  0
 12 16  2  0
 14 17  1  0
 17 18  1  0
 18 19  2  0
 18 20  1  0
 20 21  1  0
 21 22  1  0
  7 10  1  0
 13 16  1  0
 14 15  2  0
M  END
>  <Molecule Name>  (100) 
WGVVIVGNBSSANI-NPVYFSBINA-N

>  <hs_clash>  (100) 
0.0

>  <hs_total>  (100) 
124.44391704321538

>  <Total Molweight>  (100) 
313.787

>  <cLogP>  (100) 
4.0992

>  <H-Acceptors>  (100) 
4

>  <H-Donors>  (100) 
2

>  <Polar Surface Area>  (100) 
57.78

>  <Non-H Atoms>  (100) 
22

>  <sp3-Atoms>  (100) 
3

$$$$
MCZVEVRDKZUUIN-YHSKDTNENA-N
     RDKit          3D

 21 22  0  0  0  0  0  0  0  0999 V2000
   24.6454    8.8412   62.1472 O   0  0  0  0  0  0  0  0  0  0  0  0
   24.8495    7.6828   62.7527 N   0  0  0  0  0  0  0  0  0  0  0  0
   23.8301    6.8338   62.8631 O   0  0  0  0  0  0  0  0  0  0  0  0
   26.0070    7.3864   63.2243 C   0  0  0  0  0  0  0  0  0  0  0  0
   26.2209    6.1339   63.8760 C   0  0  0  0  0  0  0  0  0  0  0  0
   27.0960    8.2997   63.1059 C   0  0  0  0  0  0  0  0  0  0  0  0
   27.4964    5.7760   64.4095 C   0  0  0  0  0  0  0  0  0  0  0  0
   28.3730    7.9684   63.6280 C   0  0  0  0  0  0  0  0  0  0  0  0
   28.6007    6.7022   64.2909 C   0  0  0  0  0  0  0  0  0  0  0  0
   27.6296    4.5409   65.0190 C   0  0  0  0  0  0  0  0  0  0  0  0
   29.7778    6.3855   64.7756 N   0  0  0  0  0  0  0  0  0  0  0  0
   28.4253    4.3576   65.9158 O   0  0  0  0  0  0  0  0  0  0  0  0
   26.8525    3.4885   64.5868 N   0  0  0  0  0  0  0  0  0  0  0  0
   31.0261    7.1834   64.5575 C   0  0  0  0  0  0  0  0  0  0  0  0
   31.1433    8.2705   65.5953 C   0  0  0  0  0  0  0  0  0  0  0  0
   31.1887    7.9425   66.9837 C   0  0  0  0  0  0  0  0  0  0  0  0
   31.1993    9.6344   65.1843 C   0  0  0  0  0  0  0  0  0  0  0  0
   31.2878    8.9754   67.9549 C   0  0  0  0  0  0  0  0  0  0  0  0
   31.2975   10.6653   66.1553 C   0  0  0  0  0  0  0  0  0  0  0  0
   31.3417   10.3354   67.5428 C   0  0  0  0  0  0  0  0  0  0  0  0
   31.4331   11.3154   68.4680 O   0  0  0  0  0  0  0  0  0  0  0  0
  1  2  2  0
  2  3  1  0
  2  4  1  0
  4  5  2  0
  4  6  1  0
  5  7  1  0
  6  8  2  0
  7  9  2  0
  7 10  1  0
  9 11  1  0
 10 12  2  0
 10 13  1  0
 11 14  1  0
 14 15  1  0
 15 16  2  0
 15 17  1  0
 16 18  1  0
 17 19  2  0
 18 20  2  0
 20 21  1  0
  8  9  1  0
 19 20  1  0
M  CHG  2   2   1   3  -1
M  END
>  <Molecule Name>  (101) 
MCZVEVRDKZUUIN-YHSKDTNENA-N

>  <hs_clash>  (101) 
0.0

>  <hs_total>  (101) 
123.52498566842047

>  <Total Molweight>  (101) 
287.274

>  <cLogP>  (101) 
0.5447

>  <H-Acceptors>  (101) 
7

>  <H-Donors>  (101) 
3

>  <Polar Surface Area>  (101) 
121.17

>  <Non-H Atoms>  (101) 
21

>  <sp3-Atoms>  (101) 
3

$$$$
PNGOOMNEARANOE-DLGLGFIGNA-N
     RDKit          3D

 20 21  0  0  0  0  0  0  0  0999 V2000
   24.5788    9.2341   62.4289 O   0  0  0  0  0  0  0  0  0  0  0  0
   24.7525    8.1353   62.9269 N   0  0  0  0  0  0  0  0  0  0  0  0
   23.6692    7.3379   63.0264 O   0  0  0  0  0  0  0  0  0  0  0  0
   25.9745    7.7367   63.3568 C   0  0  0  0  0  0  0  0  0  0  0  0
   26.1719    6.4320   63.9465 C   0  0  0  0  0  0  0  0  0  0  0  0
   27.1214    8.5892   63.2435 C   0  0  0  0  0  0  0  0  0  0  0  0
   27.4647    5.9573   64.4169 C   0  0  0  0  0  0  0  0  0  0  0  0
   28.4021    8.1731   63.6858 C   0  0  0  0  0  0  0  0  0  0  0  0
   28.6323    6.8600   64.2796 C   0  0  0  0  0  0  0  0  0  0  0  0
   27.5492    4.6588   64.9394 C   0  0  0  0  0  0  0  0  0  0  0  0
   29.8503    6.4670   64.6775 N   0  0  0  0  0  0  0  0  0  0  0  0
   28.5133    4.3362   65.8222 O   0  0  0  0  0  0  0  0  0  0  0  0
   26.6911    3.6540   64.5788 N   0  0  0  0  0  0  0  0  0  0  0  0
   31.1140    7.2344   64.5966 C   0  0  0  0  0  0  0  0  0  0  0  0
   31.3571    8.1559   65.7884 C   0  0  0  0  0  0  0  0  0  0  0  0
   32.2625    9.2075   65.6694 N   0  0  0  0  0  0  0  0  0  0  0  0
   30.6901    7.9870   67.0382 C   0  0  0  0  0  0  0  0  0  0  0  0
   32.5327   10.0827   66.7052 C   0  0  0  0  0  0  0  0  0  0  0  0
   30.9664    8.8660   68.0649 N   0  0  0  0  0  0  0  0  0  0  0  0
   31.8657    9.9055   67.9360 C   0  0  0  0  0  0  0  0  0  0  0  0
  1  2  2  0
  2  3  1  0
  2  4  1  0
  4  5  2  0
  4  6  1  0
  5  7  1  0
  6  8  2  0
  7  9  2  0
  7 10  1  0
  9 11  1  0
 10 12  2  0
 10 13  1  0
 11 14  1  0
 14 15  1  0
 15 16  2  0
 15 17  1  0
 16 18  1  0
 17 19  2  0
 18 20  2  0
  8  9  1  0
 19 20  1  0
M  CHG  2   2   1   3  -1
M  END
>  <Molecule Name>  (102) 
PNGOOMNEARANOE-DLGLGFIGNA-N

>  <hs_clash>  (102) 
0.0

>  <hs_total>  (102) 
123.2575321846703

>  <Total Molweight>  (102) 
273.251

>  <cLogP>  (102) 
-1.0574

>  <H-Acceptors>  (102) 
8

>  <H-Donors>  (102) 
2

>  <Polar Surface Area>  (102) 
126.72

>  <Non-H Atoms>  (102) 
20

>  <sp3-Atoms>  (102) 
2

$$$$
CASBTGCUPQIBNJ-BWWUCZQUNA-M
     RDKit          3D

 23 24  0  0  0  0  0  0  0  0999 V2000
   23.3797    6.6918   63.0180 O   0  0  0  0  0  0  0  0  0  0  0  0
   24.3707    7.5783   62.8471 N   0  0  0  0  0  0  0  0  0  0  0  0
   24.0815    8.7379   62.2431 O   0  0  0  0  0  0  0  0  0  0  0  0
   25.6618    7.3004   63.2857 C   0  0  0  0  0  0  0  0  0  0  0  0
   25.9532    6.0547   63.9272 C   0  0  0  0  0  0  0  0  0  0  0  0
   26.7179    8.2423   63.1040 C   0  0  0  0  0  0  0  0  0  0  0  0
   27.2706    5.7386   64.3816 C   0  0  0  0  0  0  0  0  0  0  0  0
   28.0370    7.9576   63.5435 C   0  0  0  0  0  0  0  0  0  0  0  0
   28.3640    6.6898   64.1997 C   0  0  0  0  0  0  0  0  0  0  0  0
   27.4614    4.4087   65.0157 C   0  0  0  0  0  0  0  0  0  0  0  0
   29.5923    6.3755   64.6233 N   0  0  0  0  0  0  0  0  0  0  0  0
   28.3998    4.2668   65.9562 O   0  0  0  0  0  0  0  0  0  0  0  0
   26.7335    3.3364   64.6226 N   0  0  0  0  0  0  0  0  0  0  0  0
   30.8213    7.1589   64.4701 C   0  0  0  0  0  0  0  0  0  0  0  0
   30.9801    8.2907   65.4415 C   0  0  0  0  0  0  0  0  0  0  0  0
   31.1494    9.6112   64.9455 C   0  0  0  0  0  0  0  0  0  0  0  0
   30.9750    8.0576   66.8532 C   0  0  0  0  0  0  0  0  0  0  0  0
   31.3129   10.6971   65.8400 C   0  0  0  0  0  0  0  0  0  0  0  0
   31.1396    9.1417   67.7588 C   0  0  0  0  0  0  0  0  0  0  0  0
   31.3135   10.4890   67.2601 C   0  0  0  0  0  0  0  0  0  0  0  0
   31.4946   11.6628   68.1293 C   0  0  0  0  0  0  0  0  0  0  0  0
   31.4979   11.4790   69.3636 O   0  0  0  0  0  0  0  0  0  0  0  0
   31.6393   12.8022   67.6110 O   0  0  0  0  0  0  0  0  0  0  0  0
  1  2  2  0
  2  3  1  0
  2  4  1  0
  4  5  2  0
  4  6  1  0
  5  7  1  0
  6  8  2  0
  7  9  2  0
  7 10  1  0
  9 11  1  0
 10 12  2  0
 10 13  1  0
 11 14  1  0
 14 15  1  0
 15 16  2  0
 15 17  1  0
 16 18  1  0
 17 19  2  0
 18 20  2  0
 20 21  1  0
 21 22  2  0
 21 23  1  0
  8  9  1  0
 19 20  1  0
M  CHG  3   2   1   3  -1  23  -1
M  END
>  <Molecule Name>  (103) 
CASBTGCUPQIBNJ-BWWUCZQUNA-M

>  <hs_clash>  (103) 
0.0

>  <hs_total>  (103) 
123.12968759026678

>  <Total Molweight>  (103) 
314.276

>  <cLogP>  (103) 
-1.7005

>  <H-Acceptors>  (103) 
8

>  <H-Donors>  (103) 
2

>  <Polar Surface Area>  (103) 
141.07

>  <Non-H Atoms>  (103) 
23

>  <sp3-Atoms>  (103) 
3

$$$$
HGAKLLFPOGATII-JKHZCMBUNA-N
     RDKit          3D

 25 28  0  0  0  0  0  0  0  0999 V2000
   30.9960   10.5970   65.1122 S   0  0  0  0  0  0  0  0  0  0  0  0
   31.7647   11.0735   63.6912 O   0  0  0  0  0  0  0  0  0  0  0  0
   30.6160   11.8527   66.0000 O   0  0  0  0  0  0  0  0  0  0  0  0
   32.1044    9.6344   66.0206 N   0  0  0  0  0  0  0  0  0  0  0  0
   29.5863    9.6409   64.7366 C   0  0  0  0  0  0  0  0  0  0  0  0
   28.4242    9.7395   65.5445 C   0  0  0  0  0  0  0  0  0  0  0  0
   29.6285    8.7818   63.6161 C   0  0  0  0  0  0  0  0  0  0  0  0
   27.2781    8.9617   65.2198 C   0  0  0  0  0  0  0  0  0  0  0  0
   28.4922    8.0108   63.2936 C   0  0  0  0  0  0  0  0  0  0  0  0
   27.3018    8.0871   64.0872 C   0  0  0  0  0  0  0  0  0  0  0  0
   26.2718    7.3782   63.7585 N   0  0  0  0  0  0  0  0  0  0  0  0
   25.2751    7.8546   62.9710 N   0  0  0  0  0  0  0  0  0  0  0  0
   25.9617    6.0207   64.1047 C   0  0  0  0  0  0  0  0  0  0  0  0
   24.3130    6.8705   62.7774 C   0  0  0  0  0  0  0  0  0  0  0  0
   24.7121    5.7137   63.4728 C   0  0  0  0  0  0  0  0  0  0  0  0
   26.6578    4.9960   64.9214 C   0  0  0  0  0  0  0  0  0  0  0  0
   23.0377    7.0635   61.9303 C   0  0  0  0  0  0  0  0  0  0  0  0
   24.1618    4.2408   63.4231 C   0  0  0  0  0  0  0  0  0  0  0  0
   26.1371    3.7000   65.0983 C   0  0  0  0  0  0  0  0  0  0  0  0
   27.8510    5.0345   65.6269 C   0  0  0  0  0  0  0  0  0  0  0  0
   22.2047    6.1721   61.7761 O   0  0  0  0  0  0  0  0  0  0  0  0
   22.8358    8.2413   61.3445 N   0  0  0  0  0  0  0  0  0  0  0  0
   24.7993    3.2391   64.4579 C   0  0  0  0  0  0  0  0  0  0  0  0
   27.0098    2.9916   65.8928 N   0  0  0  0  0  0  0  0  0  0  0  0
   28.0469    3.7917   66.2170 N   0  0  0  0  0  0  0  0  0  0  0  0
  1  2  2  0
  1  3  2  0
  1  4  1  0
  1  5  1  0
  5  6  2  0
  5  7  1  0
  6  8  1  0
  7  9  2  0
  8 10  2  0
 10 11  1  0
 11 12  1  0
 11 13  1  0
 12 14  2  0
 13 15  2  0
 13 16  1  0
 14 17  1  0
 15 18  1  0
 16 19  2  0
 16 20  1  0
 17 21  2  0
 17 22  1  0
 18 23  2  0
 19 24  1  0
 20 25  2  0
  9 10  1  0
 14 15  1  0
 19 23  1  0
 24 25  1  0
M  END
>  <Molecule Name>  (104) 
HGAKLLFPOGATII-JKHZCMBUNA-N

>  <hs_clash>  (104) 
2.0

>  <hs_total>  (104) 
122.76282182838774

>  <Total Molweight>  (104) 
356.365

>  <cLogP>  (104) 
-0.7389

>  <H-Acceptors>  (104) 
9

>  <H-Donors>  (104) 
3

>  <Polar Surface Area>  (104) 
158.13

>  <Non-H Atoms>  (104) 
25

>  <sp3-Atoms>  (104) 
1

$$$$
RBPFQBARVLHLER-ATOYLCHZNA-O
     RDKit          3D

 26 29  0  0  0  0  0  0  0  0999 V2000
   29.2036    7.8992   63.9403 O   0  0  0  0  0  0  0  0  0  0  0  0
   29.9489    7.2749   64.6962 C   0  0  0  0  0  0  0  0  0  0  0  0
   29.6553    6.0952   65.2843 N   0  0  0  0  0  0  0  0  0  0  0  0
   31.3567    7.8141   64.9731 C   0  0  0  0  0  0  0  0  0  0  0  0
   28.5163    5.3785   65.0988 C   0  0  0  0  0  0  0  0  0  0  0  0
   31.3214    8.8978   66.0368 C   0  0  0  0  0  0  0  0  0  0  0  0
   28.4521    4.1058   65.4987 N   0  0  0  0  0  0  0  0  0  0  0  0
   27.4289    5.6499   64.3330 C   0  0  0  0  0  0  0  0  0  0  0  0
   31.5252    8.5897   67.3809 C   0  0  0  0  0  0  0  0  0  0  0  0
   31.1382   10.2189   65.6427 C   0  0  0  0  0  0  0  0  0  0  0  0
   27.3755    3.5920   65.1010 N   0  0  0  0  0  0  0  0  0  0  0  0
   26.6977    4.5186   64.4033 C   0  0  0  0  0  0  0  0  0  0  0  0
   31.4946    9.5830   68.3561 C   0  0  0  0  0  0  0  0  0  0  0  0
   31.1265   11.2190   66.6157 C   0  0  0  0  0  0  0  0  0  0  0  0
   25.3305    4.1270   63.8036 C   0  0  0  0  0  0  0  0  0  0  0  0
   31.3074   10.9081   67.9659 C   0  0  0  0  0  0  0  0  0  0  0  0
   24.9660    4.5638   62.3647 C   0  0  0  0  0  0  0  0  0  0  0  0
   24.2619    5.1903   63.5727 C   0  0  0  0  0  0  0  0  0  0  0  0
   31.2997   11.8931   68.9121 O   0  0  0  0  0  0  0  0  0  0  0  0
   30.4174   12.9782   68.4673 C   0  0  0  0  0  0  0  0  0  0  0  0
   30.6625   14.3852   69.0463 C   0  0  0  0  0  0  0  0  0  0  0  0
   31.4811   14.3344   70.2753 N   0  0  0  0  0  0  0  0  0  0  0  0
   31.1430   15.4980   71.1075 C   0  0  0  0  0  0  0  0  0  0  0  0
   32.8839   14.5662   69.8957 C   0  0  0  0  0  0  0  0  0  0  0  0
   32.3765   15.6894   71.9917 C   0  0  0  0  0  0  0  0  0  0  0  0
   33.5428   15.1517   71.1507 C   0  0  0  0  0  0  0  0  0  0  0  0
  1  2  2  0
  2  3  1  0
  2  4  1  0
  3  5  1  0
  4  6  1  0
  5  7  2  0
  5  8  1  0
  6  9  2  0
  6 10  1  0
  7 11  1  0
  8 12  2  0
  9 13  1  0
 10 14  2  0
 12 15  1  0
 13 16  2  0
 15 17  1  0
 15 18  1  0
 16 19  1  0
 19 20  1  0
 20 21  1  0
 21 22  1  0
 22 23  1  0
 22 24  1  0
 23 25  1  0
 24 26  1  0
 11 12  1  0
 14 16  1  0
 17 18  1  0
 25 26  1  0
M  CHG  1  22   1
M  END
>  <Molecule Name>  (105) 
RBPFQBARVLHLER-ATOYLCHZNA-O

>  <hs_clash>  (105) 
0.0

>  <hs_total>  (105) 
121.96153767968676

>  <Total Molweight>  (105) 
355.460

>  <cLogP>  (105) 
0.5261

>  <H-Acceptors>  (105) 
6

>  <H-Donors>  (105) 
3

>  <Polar Surface Area>  (105) 
71.45

>  <Non-H Atoms>  (105) 
26

>  <sp3-Atoms>  (105) 
12

$$$$
QNUKRWAIZMBVCU-OHLZEODANA-O
     RDKit          3D

 18 20  0  0  0  0  0  0  0  0999 V2000
   29.1507    3.9522   65.7880 O   0  0  0  0  0  0  0  0  0  0  0  0
   28.3580    4.1627   64.9969 C   0  0  0  0  0  0  0  0  0  0  0  0
   27.4262    3.3310   64.7573 N   0  0  0  0  0  0  0  0  0  0  0  0
   28.2095    5.2552   64.1692 C   0  0  0  0  0  0  0  0  0  0  0  0
   26.6680    3.8032   63.8289 C   0  0  0  0  0  0  0  0  0  0  0  0
   27.1130    4.9831   63.4481 C   0  0  0  0  0  0  0  0  0  0  0  0
   28.9311    6.2978   64.0696 C   0  0  0  0  0  0  0  0  0  0  0  0
   25.6068    3.2685   63.2826 C   0  0  0  0  0  0  0  0  0  0  0  0
   26.4958    5.6502   62.5104 C   0  0  0  0  0  0  0  0  0  0  0  0
   30.0560    6.6303   64.7159 C   0  0  0  0  0  0  0  0  0  0  0  0
   25.0020    3.9539   62.3443 C   0  0  0  0  0  0  0  0  0  0  0  0
   25.4161    5.1473   61.9332 C   0  0  0  0  0  0  0  0  0  0  0  0
   30.6755    5.9790   65.5855 N   0  0  0  0  0  0  0  0  0  0  0  0
   30.6831    7.7205   64.4979 C   0  0  0  0  0  0  0  0  0  0  0  0
   24.7431    5.7167   61.0147 O   0  0  0  0  0  0  0  0  0  0  0  0
   31.6518    6.6357   65.8962 C   0  0  0  0  0  0  0  0  0  0  0  0
   31.7007    7.7066   65.2590 N   0  0  0  0  0  0  0  0  0  0  0  0
   25.3206    6.6052   60.2372 C   0  0  0  0  0  0  0  0  0  0  0  0
  1  2  2  0
  2  3  1  0
  2  4  1  0
  3  5  1  0
  4  6  1  0
  4  7  2  0
  5  8  2  0
  6  9  2  0
  7 10  1  0
  8 11  1  0
  9 12  1  0
 10 13  1  0
 10 14  2  0
 12 15  1  0
 13 16  1  0
 14 17  1  0
 15 18  1  0
  5  6  1  0
 11 12  2  0
 16 17  2  0
M  CHG  1  17   1
M  END
>  <Molecule Name>  (106) 
QNUKRWAIZMBVCU-OHLZEODANA-O

>  <hs_clash>  (106) 
0.0

>  <hs_total>  (106) 
121.40568696505436

>  <Total Molweight>  (106) 
242.257

>  <cLogP>  (106) 
-1.5679

>  <H-Acceptors>  (106) 
5

>  <H-Donors>  (106) 
3

>  <Polar Surface Area>  (106) 
68.26

>  <Non-H Atoms>  (106) 
18

>  <sp3-Atoms>  (106) 
2

$$$$
YOZXSIIEHFGLLO-GPQMBLKYNA-N
     RDKit          3D

 21 23  0  0  0  0  0  0  0  0999 V2000
   28.0104    6.2703   64.0115 S   0  0  0  0  0  0  0  0  0  0  0  0
   29.0049    5.4158   65.0990 C   0  0  0  0  0  0  0  0  0  0  0  0
   27.0341    4.8851   63.7796 C   0  0  0  0  0  0  0  0  0  0  0  0
   28.6297    4.1566   65.2957 N   0  0  0  0  0  0  0  0  0  0  0  0
   30.1135    5.8980   65.7551 N   0  0  0  0  0  0  0  0  0  0  0  0
   27.5343    3.8386   64.5688 C   0  0  0  0  0  0  0  0  0  0  0  0
   25.9135    4.8481   62.9099 C   0  0  0  0  0  0  0  0  0  0  0  0
   30.7397    7.1265   65.7044 C   0  0  0  0  0  0  0  0  0  0  0  0
   27.0250    2.6036   64.6298 N   0  0  0  0  0  0  0  0  0  0  0  0
   25.1954    3.7072   62.7955 O   0  0  0  0  0  0  0  0  0  0  0  0
   25.4413    6.0100   62.0561 C   0  0  0  0  0  0  0  0  0  0  0  0
   31.9026    7.3161   66.5862 C   0  0  0  0  0  0  0  0  0  0  0  0
   30.3349    8.2793   64.8168 C   0  0  0  0  0  0  0  0  0  0  0  0
   26.3843    6.8232   61.2441 C   0  0  0  0  0  0  0  0  0  0  0  0
   24.0128    6.3743   61.9990 C   0  0  0  0  0  0  0  0  0  0  0  0
   32.6178    8.5702   66.5965 C   0  0  0  0  0  0  0  0  0  0  0  0
   31.0635    9.5286   64.8360 C   0  0  0  0  0  0  0  0  0  0  0  0
   25.9012    7.9032   60.4611 C   0  0  0  0  0  0  0  0  0  0  0  0
   23.5610    7.4894   61.1843 C   0  0  0  0  0  0  0  0  0  0  0  0
   32.2054    9.6687   65.7306 C   0  0  0  0  0  0  0  0  0  0  0  0
   24.5287    8.2528   60.4145 C   0  0  0  0  0  0  0  0  0  0  0  0
  1  2  1  0
  1  3  1  0
  2  4  2  0
  2  5  1  0
  3  6  2  0
  3  7  1  0
  5  8  1  0
  6  9  1  0
  7 10  2  0
  7 11  1  0
  8 12  2  0
  8 13  1  0
 11 14  2  0
 11 15  1  0
 12 16  1  0
 13 17  2  0
 14 18  1  0
 15 19  2  0
 16 20  2  0
 18 21  2  0
  4  6  1  0
 17 20  1  0
 19 21  1  0
M  END
>  <Molecule Name>  (107) 
YOZXSIIEHFGLLO-GPQMBLKYNA-N

>  <hs_clash>  (107) 
0.0

>  <hs_total>  (107) 
121.0496899857704

>  <Total Molweight>  (107) 
295.365

>  <cLogP>  (107) 
3.7016

>  <H-Acceptors>  (107) 
4

>  <H-Donors>  (107) 
2

>  <Polar Surface Area>  (107) 
96.25

>  <Non-H Atoms>  (107) 
21

>  <sp3-Atoms>  (107) 
0

$$$$
YEJVJNPGUUFGLZ-RXGGVCHJNA-N
     RDKit          3D

 25 28  0  0  0  0  0  0  0  0999 V2000
   33.4380   10.9425   64.7465 S   0  0  0  0  0  0  0  0  0  0  0  0
   33.7362   11.4308   66.1233 O   0  0  0  0  0  0  0  0  0  0  0  0
   34.6407   10.2678   64.2061 O   0  0  0  0  0  0  0  0  0  0  0  0
   33.0631   12.1425   63.7256 N   0  0  0  0  0  0  0  0  0  0  0  0
   32.1872    9.7294   64.7856 C   0  0  0  0  0  0  0  0  0  0  0  0
   31.2089    9.6686   63.7892 C   0  0  0  0  0  0  0  0  0  0  0  0
   32.2107    8.7984   65.8277 C   0  0  0  0  0  0  0  0  0  0  0  0
   30.2432    8.6546   63.8326 C   0  0  0  0  0  0  0  0  0  0  0  0
   31.2499    7.7884   65.8638 C   0  0  0  0  0  0  0  0  0  0  0  0
   30.2409    7.7283   64.8918 C   0  0  0  0  0  0  0  0  0  0  0  0
   29.3519    6.7064   64.9195 N   0  0  0  0  0  0  0  0  0  0  0  0
   28.3206    6.6864   64.2097 N   0  0  0  0  0  0  0  0  0  0  0  0
   27.4581    5.6367   64.2069 C   0  0  0  0  0  0  0  0  0  0  0  0
   27.6267    4.4705   64.9519 C   0  0  0  0  0  0  0  0  0  0  0  0
   26.3803    5.4144   63.3361 C   0  0  0  0  0  0  0  0  0  0  0  0
   28.5465    4.2618   65.7649 O   0  0  0  0  0  0  0  0  0  0  0  0
   26.7283    3.5604   64.5661 N   0  0  0  0  0  0  0  0  0  0  0  0
   25.7426    6.1417   62.3002 C   0  0  0  0  0  0  0  0  0  0  0  0
   25.9317    4.1140   63.6264 C   0  0  0  0  0  0  0  0  0  0  0  0
   25.8879    7.3705   61.7585 N   0  0  0  0  0  0  0  0  0  0  0  0
   24.6059    5.6284   61.6636 C   0  0  0  0  0  0  0  0  0  0  0  0
   24.8264    3.5842   62.9298 C   0  0  0  0  0  0  0  0  0  0  0  0
   24.9903    7.5481   60.8992 N   0  0  0  0  0  0  0  0  0  0  0  0
   24.2414    6.5580   60.7638 N   0  0  0  0  0  0  0  0  0  0  0  0
   24.1574    4.3386   61.9376 C   0  0  0  0  0  0  0  0  0  0  0  0
  1  2  2  0
  1  3  2  0
  1  4  1  0
  1  5  1  0
  5  6  2  0
  5  7  1  0
  6  8  1  0
  7  9  2  0
  8 10  2  0
 10 11  1  0
 11 12  2  0
 12 13  1  0
 13 14  1  0
 13 15  2  0
 14 16  2  0
 14 17  1  0
 15 18  1  0
 15 19  1  0
 18 20  2  0
 18 21  1  0
 19 22  2  0
 20 23  1  0
 21 24  1  0
 21 25  2  0
  9 10  1  0
 17 19  1  0
 22 25  1  0
 23 24  1  0
M  END
>  <Molecule Name>  (108) 
YEJVJNPGUUFGLZ-RXGGVCHJNA-N

>  <hs_clash>  (108) 
9.0

>  <hs_total>  (108) 
119.74713665732224

>  <Total Molweight>  (108) 
357.353

>  <cLogP>  (108) 
0.0333

>  <H-Acceptors>  (108) 
10

>  <H-Donors>  (108) 
4

>  <Polar Surface Area>  (108) 
158.78

>  <Non-H Atoms>  (108) 
25

>  <sp3-Atoms>  (108) 
1

$$$$
CGGMDMYBCWDOLZ-PDYUUQAHNA-O
     RDKit          3D

 27 30  0  0  0  0  0  0  0  0999 V2000
   24.1433    5.0827   62.1845 S   0  0  0  0  0  0  0  0  0  0  0  0
   23.6565    6.4448   61.3041 C   0  0  0  0  0  0  0  0  0  0  0  0
   25.5154    5.8664   62.8663 C   0  0  0  0  0  0  0  0  0  0  0  0
   22.6500    6.5272   60.6039 O   0  0  0  0  0  0  0  0  0  0  0  0
   24.4881    7.4605   61.5501 N   0  0  0  0  0  0  0  0  0  0  0  0
   26.4988    5.2797   63.6802 C   0  0  0  0  0  0  0  0  0  0  0  0
   25.5029    7.1848   62.3801 C   0  0  0  0  0  0  0  0  0  0  0  0
   24.2911    8.8040   60.9352 C   0  0  0  0  0  0  0  0  0  0  0  0
   27.5780    5.9612   64.1152 N   0  0  0  0  0  0  0  0  0  0  0  0
   26.4281    3.9119   63.9473 C   0  0  0  0  0  0  0  0  0  0  0  0
   26.5336    8.2525   62.7582 C   0  0  0  0  0  0  0  0  0  0  0  0
   28.5328    5.3806   64.8734 C   0  0  0  0  0  0  0  0  0  0  0  0
   27.4398    3.3222   64.6848 C   0  0  0  0  0  0  0  0  0  0  0  0
   28.4546    4.0573   65.1118 N   0  0  0  0  0  0  0  0  0  0  0  0
   29.6228    6.0108   65.3500 N   0  0  0  0  0  0  0  0  0  0  0  0
   30.0080    7.2792   65.1148 C   0  0  0  0  0  0  0  0  0  0  0  0
   30.9003    7.8829   66.0047 C   0  0  0  0  0  0  0  0  0  0  0  0
   29.5320    8.0500   64.0645 C   0  0  0  0  0  0  0  0  0  0  0  0
   31.3531    9.1975   65.8392 C   0  0  0  0  0  0  0  0  0  0  0  0
   29.9528    9.3775   63.8980 C   0  0  0  0  0  0  0  0  0  0  0  0
   30.8769    9.9542   64.7721 C   0  0  0  0  0  0  0  0  0  0  0  0
   31.3381   11.2744   64.5741 N   0  0  0  0  0  0  0  0  0  0  0  0
   32.3134   11.8337   65.5312 C   0  0  0  0  0  0  0  0  0  0  0  0
   31.0076   11.9782   63.3226 C   0  0  0  0  0  0  0  0  0  0  0  0
   32.4641   13.3665   65.5035 C   0  0  0  0  0  0  0  0  0  0  0  0
   31.7650   13.3039   63.2348 C   0  0  0  0  0  0  0  0  0  0  0  0
   31.5964   14.0036   64.5011 N   0  0  0  0  0  0  0  0  0  0  0  0
  1  2  1  0
  1  3  1  0
  2  4  2  0
  2  5  1  0
  3  6  1  0
  3  7  2  0
  5  8  1  0
  6  9  2  0
  6 10  1  0
  7 11  1  0
  9 12  1  0
 10 13  2  0
 12 14  2  0
 12 15  1  0
 15 16  1  0
 16 17  2  0
 16 18  1  0
 17 19  1  0
 18 20  2  0
 19 21  2  0
 21 22  1  0
 22 23  1  0
 22 24  1  0
 23 25  1  0
 24 26  1  0
 25 27  1  0
  5  7  1  0
 13 14  1  0
 20 21  1  0
 26 27  1  0
M  CHG  1  27   1
M  END
>  <Molecule Name>  (109) 
CGGMDMYBCWDOLZ-PDYUUQAHNA-O

>  <hs_clash>  (109) 
29.0

>  <hs_total>  (109) 
119.11471484367183

>  <Total Molweight>  (109) 
383.499

>  <cLogP>  (109) 
2.423

>  <H-Acceptors>  (109) 
7

>  <H-Donors>  (109) 
2

>  <Polar Surface Area>  (109) 
103.27

>  <Non-H Atoms>  (109) 
27

>  <sp3-Atoms>  (109) 
8

$$$$
GPSZYOIFQZPWEJ-WAVQYLLINA-N
     RDKit          3D

 26 29  0  0  0  0  0  0  0  0999 V2000
   24.7596    6.7761   62.9766 S   0  0  0  0  0  0  0  0  0  0  0  0
   23.3928    6.4561   62.0015 C   0  0  0  0  0  0  0  0  0  0  0  0
   24.8738    5.1669   63.5449 C   0  0  0  0  0  0  0  0  0  0  0  0
   23.0675    5.1574   62.1025 N   0  0  0  0  0  0  0  0  0  0  0  0
   22.7479    7.3640   61.2625 N   0  0  0  0  0  0  0  0  0  0  0  0
   25.8672    4.6475   64.3758 C   0  0  0  0  0  0  0  0  0  0  0  0
   23.8701    4.4397   62.9088 C   0  0  0  0  0  0  0  0  0  0  0  0
   26.8331    5.4555   64.8534 N   0  0  0  0  0  0  0  0  0  0  0  0
   25.9348    3.2817   64.6449 C   0  0  0  0  0  0  0  0  0  0  0  0
   23.6799    2.9440   63.1470 C   0  0  0  0  0  0  0  0  0  0  0  0
   27.8373    4.9710   65.6040 C   0  0  0  0  0  0  0  0  0  0  0  0
   26.9871    2.8152   65.4256 C   0  0  0  0  0  0  0  0  0  0  0  0
   27.8967    3.6615   65.8917 N   0  0  0  0  0  0  0  0  0  0  0  0
   28.7751    5.7867   66.0737 N   0  0  0  0  0  0  0  0  0  0  0  0
   29.0778    6.9683   65.5258 C   0  0  0  0  0  0  0  0  0  0  0  0
   28.1602    7.6956   64.7690 C   0  0  0  0  0  0  0  0  0  0  0  0
   30.3404    7.4991   65.7632 C   0  0  0  0  0  0  0  0  0  0  0  0
   28.5142    8.9322   64.2363 C   0  0  0  0  0  0  0  0  0  0  0  0
   30.6911    8.7384   65.2467 C   0  0  0  0  0  0  0  0  0  0  0  0
   29.7871    9.4520   64.4681 C   0  0  0  0  0  0  0  0  0  0  0  0
   30.1604   10.7174   63.9754 N   0  0  0  0  0  0  0  0  0  0  0  0
   31.5388   11.2319   64.1803 C   0  0  0  0  0  0  0  0  0  0  0  0
   29.1558   11.6132   63.3408 C   0  0  0  0  0  0  0  0  0  0  0  0
   31.4695   12.6508   64.7651 C   0  0  0  0  0  0  0  0  0  0  0  0
   29.2128   13.0269   63.9398 C   0  0  0  0  0  0  0  0  0  0  0  0
   30.5692   13.5234   64.0268 O   0  0  0  0  0  0  0  0  0  0  0  0
  1  2  1  0
  1  3  1  0
  2  4  2  0
  2  5  1  0
  3  6  1  0
  3  7  2  0
  6  8  2  0
  6  9  1  0
  7 10  1  0
  8 11  1  0
  9 12  2  0
 11 13  2  0
 11 14  1  0
 14 15  1  0
 15 16  2  0
 15 17  1  0
 16 18  1  0
 17 19  2  0
 18 20  2  0
 20 21  1  0
 21 22  1  0
 21 23  1  0
 22 24  1  0
 23 25  1  0
 24 26  1  0
  4  7  1  0
 12 13  1  0
 19 20  1  0
 25 26  1  0
M  END
>  <Molecule Name>  (110) 
GPSZYOIFQZPWEJ-WAVQYLLINA-N

>  <hs_clash>  (110) 
4.0

>  <hs_total>  (110) 
118.67006802814993

>  <Total Molweight>  (110) 
368.464

>  <cLogP>  (110) 
3.0005

>  <H-Acceptors>  (110) 
7

>  <H-Donors>  (110) 
2

>  <Polar Surface Area>  (110) 
117.43

>  <Non-H Atoms>  (110) 
26

>  <sp3-Atoms>  (110) 
6

$$$$
UNSUKTMPEHFJHC-VNHAUOCNNA-N
     RDKit          3D

 28 30  0  0  0  0  0  0  0  0999 V2000
   33.3402   10.6969   64.7025 S   0  0  0  0  0  0  0  0  0  0  0  0
   34.6971   10.0238   64.0766 O   0  0  0  0  0  0  0  0  0  0  0  0
   33.7093   11.4121   65.9805 O   0  0  0  0  0  0  0  0  0  0  0  0
   32.8072   11.6346   63.5766 N   0  0  0  0  0  0  0  0  0  0  0  0
   32.2631    9.3583   64.9849 C   0  0  0  0  0  0  0  0  0  0  0  0
   32.5670    8.4320   66.0131 C   0  0  0  0  0  0  0  0  0  0  0  0
   31.1078    9.1848   64.1879 C   0  0  0  0  0  0  0  0  0  0  0  0
   31.7326    7.3161   66.2493 C   0  0  0  0  0  0  0  0  0  0  0  0
   30.2721    8.0646   64.4111 C   0  0  0  0  0  0  0  0  0  0  0  0
   30.5680    7.1017   65.4512 C   0  0  0  0  0  0  0  0  0  0  0  0
   29.8442    5.9521   65.6819 N   0  0  0  0  0  0  0  0  0  0  0  0
   28.7218    5.5261   65.0068 C   0  0  0  0  0  0  0  0  0  0  0  0
   27.7903    6.4180   63.8553 S   0  0  0  0  0  0  0  0  0  0  0  0
   28.2539    4.2985   65.2516 N   0  0  0  0  0  0  0  0  0  0  0  0
   26.7639    5.0437   63.6620 C   0  0  0  0  0  0  0  0  0  0  0  0
   27.1775    4.0069   64.5082 C   0  0  0  0  0  0  0  0  0  0  0  0
   25.6973    5.0101   62.7800 C   0  0  0  0  0  0  0  0  0  0  0  0
   26.5990    2.7878   64.6108 N   0  0  0  0  0  0  0  0  0  0  0  0
   24.9303    3.8945   62.6702 O   0  0  0  0  0  0  0  0  0  0  0  0
   25.3137    6.1531   61.8892 C   0  0  0  0  0  0  0  0  0  0  0  0
   23.9773    6.6649   61.8885 C   0  0  0  0  0  0  0  0  0  0  0  0
   26.2918    6.7476   61.0209 C   0  0  0  0  0  0  0  0  0  0  0  0
   23.5999    7.7705   61.0324 C   0  0  0  0  0  0  0  0  0  0  0  0
   25.9423    7.8333   60.1720 C   0  0  0  0  0  0  0  0  0  0  0  0
   22.3483    8.2482   61.0435 N   0  0  0  0  0  0  0  0  0  0  0  0
   24.6168    8.3421   60.1762 C   0  0  0  0  0  0  0  0  0  0  0  0
   22.0156    9.1778   60.3368 O   0  0  0  0  0  0  0  0  0  0  0  0
   21.4127    7.7239   61.8300 O   0  0  0  0  0  0  0  0  0  0  0  0
  1  2  2  0
  1  3  2  0
  1  4  1  0
  1  5  1  0
  5  6  2  0
  5  7  1  0
  6  8  1  0
  7  9  2  0
  8 10  2  0
 10 11  1  0
 11 12  1  0
 12 13  1  0
 12 14  2  0
 13 15  1  0
 14 16  1  0
 15 17  1  0
 16 18  1  0
 17 19  2  0
 17 20  1  0
 20 21  2  0
 20 22  1  0
 21 23  1  0
 22 24  2  0
 23 25  1  0
 23 26  2  0
 25 27  2  0
 25 28  1  0
  9 10  1  0
 15 16  2  0
 24 26  1  0
M  CHG  2  25   1  28  -1
M  END
>  <Molecule Name>  (111) 
UNSUKTMPEHFJHC-VNHAUOCNNA-N

>  <hs_clash>  (111) 
3.0

>  <hs_total>  (111) 
117.67998823325337

>  <Total Molweight>  (111) 
419.441

>  <cLogP>  (111) 
1.3736

>  <H-Acceptors>  (111) 
10

>  <H-Donors>  (111) 
3

>  <Polar Surface Area>  (111) 
210.61

>  <Non-H Atoms>  (111) 
28

>  <sp3-Atoms>  (111) 
2

$$$$
LERGLIZTDGVNRO-GPQMBLKYNA-N
     RDKit          3D

 21 23  0  0  0  0  0  0  0  0999 V2000
   27.6391    6.4091   63.8644 S   0  0  0  0  0  0  0  0  0  0  0  0
   28.6480    5.6014   64.9944 C   0  0  0  0  0  0  0  0  0  0  0  0
   26.7005    4.9893   63.6870 C   0  0  0  0  0  0  0  0  0  0  0  0
   28.2897    4.3355   65.2274 N   0  0  0  0  0  0  0  0  0  0  0  0
   29.7470    6.1145   65.6618 N   0  0  0  0  0  0  0  0  0  0  0  0
   27.2132    3.9800   64.5145 C   0  0  0  0  0  0  0  0  0  0  0  0
   25.5957    4.8904   62.8287 C   0  0  0  0  0  0  0  0  0  0  0  0
   30.3567    7.3613   65.6104 C   0  0  0  0  0  0  0  0  0  0  0  0
   26.7256    2.7386   64.6260 N   0  0  0  0  0  0  0  0  0  0  0  0
   24.9086    3.7396   62.7596 O   0  0  0  0  0  0  0  0  0  0  0  0
   25.0919    5.9865   61.9160 C   0  0  0  0  0  0  0  0  0  0  0  0
   31.5010    7.5844   66.4833 C   0  0  0  0  0  0  0  0  0  0  0  0
   29.9287    8.4716   64.7365 C   0  0  0  0  0  0  0  0  0  0  0  0
   23.6860    6.3031   61.7467 C   0  0  0  0  0  0  0  0  0  0  0  0
   26.0570    6.7643   61.1412 C   0  0  0  0  0  0  0  0  0  0  0  0
   32.1816    8.8490   66.4895 C   0  0  0  0  0  0  0  0  0  0  0  0
   30.6132    9.7281   64.7439 C   0  0  0  0  0  0  0  0  0  0  0  0
   23.3178    7.3311   60.8647 N   0  0  0  0  0  0  0  0  0  0  0  0
   25.6399    7.8118   60.2490 C   0  0  0  0  0  0  0  0  0  0  0  0
   31.7379    9.9185   65.6210 C   0  0  0  0  0  0  0  0  0  0  0  0
   24.2448    8.0846   60.1238 C   0  0  0  0  0  0  0  0  0  0  0  0
  1  2  1  0
  1  3  1  0
  2  4  2  0
  2  5  1  0
  3  6  2  0
  3  7  1  0
  5  8  1  0
  6  9  1  0
  7 10  2  0
  7 11  1  0
  8 12  2  0
  8 13  1  0
 11 14  2  0
 11 15  1  0
 12 16  1  0
 13 17  2  0
 14 18  1  0
 15 19  2  0
 16 20  2  0
 18 21  2  0
  4  6  1  0
 17 20  1  0
 19 21  1  0
M  END
>  <Molecule Name>  (112) 
LERGLIZTDGVNRO-GPQMBLKYNA-N

>  <hs_clash>  (112) 
0.0

>  <hs_total>  (112) 
115.81649694250487

>  <Total Molweight>  (112) 
296.353

>  <cLogP>  (112) 
2.7007

>  <H-Acceptors>  (112) 
5

>  <H-Donors>  (112) 
2

>  <Polar Surface Area>  (112) 
109.14

>  <Non-H Atoms>  (112) 
21

>  <sp3-Atoms>  (112) 
0

$$$$
JXJHPQHLHQTQQI-VNHAUOCNNA-N
     RDKit          3D

 28 30  0  0  0  0  0  0  0  0999 V2000
   33.0164   10.5638   64.5492 S   0  0  0  0  0  0  0  0  0  0  0  0
   34.0398   10.0415   63.6790 O   0  0  0  0  0  0  0  0  0  0  0  0
   33.5846   11.0668   65.7808 O   0  0  0  0  0  0  0  0  0  0  0  0
   32.2150   11.7725   63.7492 N   0  0  0  0  0  0  0  0  0  0  0  0
   31.9474    9.1963   64.8864 C   0  0  0  0  0  0  0  0  0  0  0  0
   31.0147    8.7829   63.9097 C   0  0  0  0  0  0  0  0  0  0  0  0
   32.0490    8.5024   66.1103 C   0  0  0  0  0  0  0  0  0  0  0  0
   30.1891    7.6696   64.1577 C   0  0  0  0  0  0  0  0  0  0  0  0
   31.2133    7.3858   66.3588 C   0  0  0  0  0  0  0  0  0  0  0  0
   30.2701    6.9500   65.3849 C   0  0  0  0  0  0  0  0  0  0  0  0
   29.5280    5.8684   65.6807 N   0  0  0  0  0  0  0  0  0  0  0  0
   28.5098    5.3444   65.0157 C   0  0  0  0  0  0  0  0  0  0  0  0
   27.4810    6.2119   63.9360 S   0  0  0  0  0  0  0  0  0  0  0  0
   28.2035    4.0606   65.1639 N   0  0  0  0  0  0  0  0  0  0  0  0
   26.5776    4.7546   63.6046 C   0  0  0  0  0  0  0  0  0  0  0  0
   27.1132    3.7196   64.3778 C   0  0  0  0  0  0  0  0  0  0  0  0
   25.5142    4.6501   62.7038 C   0  0  0  0  0  0  0  0  0  0  0  0
   26.6435    2.5190   64.3578 N   0  0  0  0  0  0  0  0  0  0  0  0
   24.9011    3.5774   62.5773 O   0  0  0  0  0  0  0  0  0  0  0  0
   25.1852    5.6955   61.8133 C   0  0  0  0  0  0  0  0  0  0  0  0
   23.8618    6.2710   61.7687 C   0  0  0  0  0  0  0  0  0  0  0  0
   26.1790    6.1871   60.9112 C   0  0  0  0  0  0  0  0  0  0  0  0
   22.9051    5.8815   62.5400 N   0  0  0  0  0  0  0  0  0  0  0  0
   23.5891    7.2955   60.8358 C   0  0  0  0  0  0  0  0  0  0  0  0
   25.8780    7.2173   59.9939 C   0  0  0  0  0  0  0  0  0  0  0  0
   23.1303    5.4960   63.7719 O   0  0  0  0  0  0  0  0  0  0  0  0
   21.6842    5.8654   62.0807 O   0  0  0  0  0  0  0  0  0  0  0  0
   24.5863    7.7627   59.9572 C   0  0  0  0  0  0  0  0  0  0  0  0
  1  2  2  0
  1  3  2  0
  1  4  1  0
  1  5  1  0
  5  6  2  0
  5  7  1  0
  6  8  1  0
  7  9  2  0
  8 10  2  0
 10 11  1  0
 11 12  1  0
 12 13  1  0
 12 14  2  0
 13 15  1  0
 14 16  1  0
 15 17  1  0
 16 18  1  0
 17 19  2  0
 17 20  1  0
 20 21  2  0
 20 22  1  0
 21 23  1  0
 21 24  1  0
 22 25  2  0
 23 26  2  0
 23 27  1  0
 24 28  2  0
  9 10  1  0
 15 16  2  0
 25 28  1  0
M  CHG  2  23   1  27  -1
M  END
>  <Molecule Name>  (113) 
JXJHPQHLHQTQQI-VNHAUOCNNA-N

>  <hs_clash>  (113) 
2.0

>  <hs_total>  (113) 
115.5104925217967

>  <Total Molweight>  (113) 
419.441

>  <cLogP>  (113) 
1.3736

>  <H-Acceptors>  (113) 
10

>  <H-Donors>  (113) 
3

>  <Polar Surface Area>  (113) 
210.61

>  <Non-H Atoms>  (113) 
28

>  <sp3-Atoms>  (113) 
2

$$$$
FUGRWXRQJGJIER-LCNYUBJKNA-N
     RDKit          3D

 32 36  0  0  0  0  0  0  0  0999 V2000
   32.3314   10.9330   64.5708 S   0  0  0  0  0  0  0  0  0  0  0  0
   33.3097   11.3225   65.5212 O   0  0  0  0  0  0  0  0  0  0  0  0
   32.9566   10.6742   63.3389 O   0  0  0  0  0  0  0  0  0  0  0  0
   31.0964   12.0381   64.3808 N   0  0  0  0  0  0  0  0  0  0  0  0
   31.3802    9.5828   65.0522 C   0  0  0  0  0  0  0  0  0  0  0  0
   30.5308    9.0676   64.1100 C   0  0  0  0  0  0  0  0  0  0  0  0
   31.4305    9.0575   66.3281 C   0  0  0  0  0  0  0  0  0  0  0  0
   29.7423    7.9843   64.4239 C   0  0  0  0  0  0  0  0  0  0  0  0
   30.6412    7.9805   66.6519 C   0  0  0  0  0  0  0  0  0  0  0  0
   29.7772    7.4248   65.7080 C   0  0  0  0  0  0  0  0  0  0  0  0
   28.9585    6.2818   66.1179 N   0  0  0  0  0  0  0  0  0  0  0  0
   27.8226    5.8331   65.3649 C   0  0  0  0  0  0  0  0  0  0  0  0
   27.2112    6.6703   64.5043 N   0  0  0  0  0  0  0  0  0  0  0  0
   27.3646    4.5724   65.4978 N   0  0  0  0  0  0  0  0  0  0  0  0
   26.1388    6.3181   63.7410 C   0  0  0  0  0  0  0  0  0  0  0  0
   26.2952    4.1570   64.7626 C   0  0  0  0  0  0  0  0  0  0  0  0
   25.5580    7.3162   62.7895 C   0  0  0  0  0  0  0  0  0  0  0  0
   25.6655    5.0130   63.8636 C   0  0  0  0  0  0  0  0  0  0  0  0
   25.6547    3.0017   64.7229 N   0  0  0  0  0  0  0  0  0  0  0  0
   26.1492    8.5814   62.7499 C   0  0  0  0  0  0  0  0  0  0  0  0
   24.4872    7.0532   61.8898 C   0  0  0  0  0  0  0  0  0  0  0  0
   24.5584    4.2551   63.2503 N   0  0  0  0  0  0  0  0  0  0  0  0
   24.6276    3.0649   63.8424 C   0  0  0  0  0  0  0  0  0  0  0  0
   25.6778    9.5354   61.8819 C   0  0  0  0  0  0  0  0  0  0  0  0
   24.0359    8.0478   61.0165 C   0  0  0  0  0  0  0  0  0  0  0  0
   26.3349   10.8349   61.9034 C   0  0  0  0  0  0  0  0  0  0  0  0
   24.6415    9.2998   61.0093 C   0  0  0  0  0  0  0  0  0  0  0  0
   27.6190   10.8790   61.4673 C   0  0  0  0  0  0  0  0  0  0  0  0
   25.6549   11.9364   62.3528 C   0  0  0  0  0  0  0  0  0  0  0  0
   28.2469   12.0689   61.4823 C   0  0  0  0  0  0  0  0  0  0  0  0
   26.2877   13.1361   62.3657 C   0  0  0  0  0  0  0  0  0  0  0  0
   27.5872   13.2023   61.9282 C   0  0  0  0  0  0  0  0  0  0  0  0
  1  2  2  0
  1  3  2  0
  1  4  1  0
  1  5  1  0
  5  6  2  0
  5  7  1  0
  6  8  1  0
  7  9  2  0
  8 10  2  0
 10 11  1  0
 11 12  1  0
 12 13  2  0
 12 14  1  0
 13 15  1  0
 14 16  2  0
 15 17  1  0
 15 18  2  0
 16 19  1  0
 17 20  2  0
 17 21  1  0
 18 22  1  0
 19 23  1  0
 20 24  1  0
 21 25  2  0
 24 26  1  0
 24 27  2  0
 26 28  2  0
 26 29  1  0
 28 30  1  0
 29 31  2  0
 30 32  2  0
  9 10  1  0
 16 18  1  0
 22 23  2  0
 25 27  1  0
 31 32  1  0
M  END
>  <Molecule Name>  (114) 
FUGRWXRQJGJIER-LCNYUBJKNA-N

>  <hs_clash>  (114) 
0.0

>  <hs_total>  (114) 
115.28947049039984

>  <Total Molweight>  (114) 
442.502

>  <cLogP>  (114) 
4.0522

>  <H-Acceptors>  (114) 
8

>  <H-Donors>  (114) 
3

>  <Polar Surface Area>  (114) 
135.03

>  <Non-H Atoms>  (114) 
32

>  <sp3-Atoms>  (114) 
1

$$$$
PCQPAKMJSYGXRE-UKXPRSRNNA-O
     RDKit          3D

 30 33  0  0  0  0  0  0  0  0999 V2000
   26.0691    9.2956   62.9859 S   0  0  0  0  0  0  0  0  0  0  0  0
   26.6949    7.8226   63.6986 C   0  0  0  0  0  0  0  0  0  0  0  0
   27.5624   10.3106   62.7743 C   0  0  0  0  0  0  0  0  0  0  0  0
   27.9729    7.8753   64.1413 N   0  0  0  0  0  0  0  0  0  0  0  0
   25.8757    6.7704   63.7781 N   0  0  0  0  0  0  0  0  0  0  0  0
   28.3211    9.9208   61.5260 C   0  0  0  0  0  0  0  0  0  0  0  0
   28.4923    6.7859   64.7410 C   0  0  0  0  0  0  0  0  0  0  0  0
   26.4018    5.6680   64.3650 C   0  0  0  0  0  0  0  0  0  0  0  0
   27.7555   10.4993   60.2935 N   0  0  0  0  0  0  0  0  0  0  0  0
   29.7973    6.8334   65.1526 N   0  0  0  0  0  0  0  0  0  0  0  0
   27.6991    5.6381   64.8693 C   0  0  0  0  0  0  0  0  0  0  0  0
   25.8473    4.4442   64.5907 C   0  0  0  0  0  0  0  0  0  0  0  0
   30.7474    7.8388   64.6757 C   0  0  0  0  0  0  0  0  0  0  0  0
   27.8612    4.3927   65.3542 N   0  0  0  0  0  0  0  0  0  0  0  0
   26.7385    3.6595   65.1892 N   0  0  0  0  0  0  0  0  0  0  0  0
   24.4792    3.9466   64.2116 C   0  0  0  0  0  0  0  0  0  0  0  0
   30.8214    8.9899   65.6493 C   0  0  0  0  0  0  0  0  0  0  0  0
   24.4466    3.5141   62.7429 C   0  0  0  0  0  0  0  0  0  0  0  0
   23.3838    4.9632   64.5271 C   0  0  0  0  0  0  0  0  0  0  0  0
   30.6337   10.3025   65.2503 C   0  0  0  0  0  0  0  0  0  0  0  0
   31.1053    8.7352   66.9779 C   0  0  0  0  0  0  0  0  0  0  0  0
   30.7384   11.3376   66.1633 C   0  0  0  0  0  0  0  0  0  0  0  0
   31.1984    9.7586   67.8964 C   0  0  0  0  0  0  0  0  0  0  0  0
   31.0322   11.0845   67.5021 C   0  0  0  0  0  0  0  0  0  0  0  0
   31.0640   12.1830   68.4986 C   0  0  0  0  0  0  0  0  0  0  0  0
   30.3877   13.3091   68.1646 N   0  0  0  0  0  0  0  0  0  0  0  0
   31.6500   12.0393   69.7411 C   0  0  0  0  0  0  0  0  0  0  0  0
   30.3578   14.3185   69.0494 C   0  0  0  0  0  0  0  0  0  0  0  0
   31.5998   13.0899   70.6340 C   0  0  0  0  0  0  0  0  0  0  0  0
   30.9469   14.2511   70.2866 C   0  0  0  0  0  0  0  0  0  0  0  0
  1  2  1  0
  1  3  1  0
  2  4  1  0
  2  5  2  0
  3  6  1  0
  4  7  2  0
  5  8  1  0
  6  9  1  0
  7 10  1  0
  7 11  1  0
  8 12  2  0
 10 13  1  0
 11 14  2  0
 12 15  1  0
 12 16  1  0
 13 17  1  0
 16 18  1  0
 16 19  1  0
 17 20  2  0
 17 21  1  0
 20 22  1  0
 21 23  2  0
 22 24  2  0
 24 25  1  0
 25 26  2  0
 25 27  1  0
 26 28  1  0
 27 29  2  0
 28 30  2  0
  8 11  1  0
 14 15  1  0
 23 24  1  0
 29 30  1  0
M  CHG  1   9   1
M  END
>  <Molecule Name>  (115) 
PCQPAKMJSYGXRE-UKXPRSRNNA-O

>  <hs_clash>  (115) 
0.0

>  <hs_total>  (115) 
115.2398919255501

>  <Total Molweight>  (115) 
420.563

>  <cLogP>  (115) 
-0.4428

>  <H-Acceptors>  (115) 
7

>  <H-Donors>  (115) 
3

>  <Polar Surface Area>  (115) 
132.32

>  <Non-H Atoms>  (115) 
30

>  <sp3-Atoms>  (115) 
8

$$$$
DJXADPDNJXCWOH-JQHVODBVNA-N
     RDKit          3D

 25 28  0  0  0  0  0  0  0  0999 V2000
   25.2894    6.5890   63.8865 O   0  0  0  0  0  0  0  0  0  0  0  0
   26.1797    5.7266   64.4804 C   0  0  0  0  0  0  0  0  0  0  0  0
   25.8426    7.1199   62.6829 C   0  0  0  0  0  0  0  0  0  0  0  0
   25.8793    4.4280   64.6334 N   0  0  0  0  0  0  0  0  0  0  0  0
   27.3608    6.2038   64.9087 C   0  0  0  0  0  0  0  0  0  0  0  0
   24.7562    7.5606   61.7395 C   0  0  0  0  0  0  0  0  0  0  0  0
   26.7660    3.6117   65.2211 C   0  0  0  0  0  0  0  0  0  0  0  0
   27.9161    7.4179   64.8832 N   0  0  0  0  0  0  0  0  0  0  0  0
   28.2309    5.3658   65.4874 C   0  0  0  0  0  0  0  0  0  0  0  0
   24.0610    8.7835   62.3477 C   0  0  0  0  0  0  0  0  0  0  0  0
   25.4962    7.8377   60.3999 C   0  0  0  0  0  0  0  0  0  0  0  0
   27.9423    4.0798   65.6481 N   0  0  0  0  0  0  0  0  0  0  0  0
   26.4825    2.3333   65.3855 N   0  0  0  0  0  0  0  0  0  0  0  0
   29.1183    7.2884   65.4485 C   0  0  0  0  0  0  0  0  0  0  0  0
   29.3175    6.0341   65.8188 N   0  0  0  0  0  0  0  0  0  0  0  0
   23.3154    9.6017   61.3534 C   0  0  0  0  0  0  0  0  0  0  0  0
   24.7862    8.8310   59.4922 C   0  0  0  0  0  0  0  0  0  0  0  0
   30.0215    8.2607   65.6232 C   0  0  0  0  0  0  0  0  0  0  0  0
   24.2828   10.0457   60.2520 C   0  0  0  0  0  0  0  0  0  0  0  0
   30.2983    9.1943   64.5989 C   0  0  0  0  0  0  0  0  0  0  0  0
   30.7199    8.3353   66.8398 C   0  0  0  0  0  0  0  0  0  0  0  0
   31.2551   10.1930   64.8182 C   0  0  0  0  0  0  0  0  0  0  0  0
   29.6486    9.1775   63.3535 C   0  0  0  0  0  0  0  0  0  0  0  0
   31.6656    9.3395   67.0506 C   0  0  0  0  0  0  0  0  0  0  0  0
   31.9340   10.2664   66.0391 C   0  0  0  0  0  0  0  0  0  0  0  0
  1  2  1  0
  1  3  1  0
  2  4  2  0
  2  5  1  0
  3  6  1  0
  4  7  1  0
  5  8  1  0
  5  9  2  0
  6 10  1  0
  6 11  1  0
  7 12  2  0
  7 13  1  0
  8 14  2  0
  9 15  1  0
 10 16  1  0
 11 17  1  0
 14 18  1  0
 16 19  1  0
 18 20  2  0
 18 21  1  0
 20 22  1  0
 20 23  1  0
 21 24  2  0
 22 25  2  0
  9 12  1  0
 14 15  1  0
 17 19  1  0
 24 25  1  0
M  END
>  <Molecule Name>  (116) 
DJXADPDNJXCWOH-JQHVODBVNA-N

>  <hs_clash>  (116) 
0.0

>  <hs_total>  (116) 
115.22293982194451

>  <Total Molweight>  (116) 
337.426

>  <cLogP>  (116) 
3.6898

>  <H-Acceptors>  (116) 
6

>  <H-Donors>  (116) 
2

>  <Polar Surface Area>  (116) 
89.71

>  <Non-H Atoms>  (116) 
25

>  <sp3-Atoms>  (116) 
9

$$$$
JPXZDHWPWCZKAT-IUIWLCSJNA-N
     RDKit          3D

 14 15  0  0  0  0  0  0  0  0999 V2000
   26.3455    7.1058   61.9356 S   0  0  0  0  0  0  0  0  0  0  0  0
   25.2701    7.0559   60.6573 C   0  0  0  0  0  0  0  0  0  0  0  0
   25.8508    5.6151   62.4696 C   0  0  0  0  0  0  0  0  0  0  0  0
   24.5332    5.9235   60.5690 N   0  0  0  0  0  0  0  0  0  0  0  0
   25.3360    8.3374   59.8904 N   0  0  0  0  0  0  0  0  0  0  0  0
   26.7643    5.0832   63.5153 C   0  0  0  0  0  0  0  0  0  0  0  0
   24.8342    4.9752   61.5256 C   0  0  0  0  0  0  0  0  0  0  0  0
   27.6784    5.9569   64.0512 N   0  0  0  0  0  0  0  0  0  0  0  0
   26.6811    3.7700   63.9513 C   0  0  0  0  0  0  0  0  0  0  0  0
   24.1263    3.6526   61.5700 C   0  0  0  0  0  0  0  0  0  0  0  0
   28.5502    5.5694   64.9786 C   0  0  0  0  0  0  0  0  0  0  0  0
   27.6128    3.4022   64.8819 C   0  0  0  0  0  0  0  0  0  0  0  0
   28.5256    4.3064   65.3509 N   0  0  0  0  0  0  0  0  0  0  0  0
   29.4845    6.3048   65.5487 N   0  0  0  0  0  0  0  0  0  0  0  0
  1  2  1  0
  1  3  1  0
  2  4  2  0
  2  5  1  0
  3  6  1  0
  3  7  2  0
  6  8  2  0
  6  9  1  0
  7 10  1  0
  8 11  1  0
  9 12  2  0
 11 13  2  0
 11 14  1  0
  4  7  1  0
 12 13  1  0
M  END
>  <Molecule Name>  (117) 
JPXZDHWPWCZKAT-IUIWLCSJNA-N

>  <hs_clash>  (117) 
0.0

>  <hs_total>  (117) 
115.21736557339001

>  <Total Molweight>  (117) 
207.260

>  <cLogP>  (117) 
1.1238

>  <H-Acceptors>  (117) 
5

>  <H-Donors>  (117) 
2

>  <Polar Surface Area>  (117) 
118.95

>  <Non-H Atoms>  (117) 
14

>  <sp3-Atoms>  (117) 
1

$$$$
GGEWEQJWGGJUHO-JLOFHYGUNA-N
     RDKit          3D

 18 20  0  0  0  0  0  0  0  0999 V2000
   25.9199    7.7360   63.8097 O   0  0  0  0  0  0  0  0  0  0  0  0
   26.5550    6.7144   64.4728 C   0  0  0  0  0  0  0  0  0  0  0  0
   26.3266    9.1011   63.9280 C   0  0  0  0  0  0  0  0  0  0  0  0
   26.0921    5.3087   64.3501 C   0  0  0  0  0  0  0  0  0  0  0  0
   27.6936    6.9026   65.2758 C   0  0  0  0  0  0  0  0  0  0  0  0
   26.8016    4.2873   65.1185 C   0  0  0  0  0  0  0  0  0  0  0  0
   24.9197    4.6812   63.7735 C   0  0  0  0  0  0  0  0  0  0  0  0
   28.3238    5.8450   65.9480 C   0  0  0  0  0  0  0  0  0  0  0  0
   27.8908    4.5698   65.8833 N   0  0  0  0  0  0  0  0  0  0  0  0
   26.1944    3.0839   64.9131 N   0  0  0  0  0  0  0  0  0  0  0  0
   23.9656    5.0766   62.6927 C   0  0  0  0  0  0  0  0  0  0  0  0
   25.1152    3.2146   64.0822 C   0  0  0  0  0  0  0  0  0  0  0  0
   23.3405    4.0772   62.0126 N   0  0  0  0  0  0  0  0  0  0  0  0
   23.5219    6.3993   62.4993 C   0  0  0  0  0  0  0  0  0  0  0  0
   22.3959    4.3247   61.0806 C   0  0  0  0  0  0  0  0  0  0  0  0
   22.5514    6.6384   61.5162 C   0  0  0  0  0  0  0  0  0  0  0  0
   21.9954    5.6080   60.8407 N   0  0  0  0  0  0  0  0  0  0  0  0
   21.8634    3.2732   60.3976 N   0  0  0  0  0  0  0  0  0  0  0  0
  1  2  1  0
  1  3  1  0
  2  4  2  0
  2  5  1  0
  4  6  1  0
  4  7  1  0
  5  8  2  0
  6  9  2  0
  6 10  1  0
  7 11  1  0
  7 12  2  0
 11 13  2  0
 11 14  1  0
 13 15  1  0
 14 16  2  0
 15 17  2  0
 15 18  1  0
  8  9  1  0
 10 12  1  0
 16 17  1  0
M  END
>  <Molecule Name>  (118) 
GGEWEQJWGGJUHO-JLOFHYGUNA-N

>  <hs_clash>  (118) 
0.0

>  <hs_total>  (118) 
115.13061854900427

>  <Total Molweight>  (118) 
241.253

>  <cLogP>  (118) 
0.7902

>  <H-Acceptors>  (118) 
6

>  <H-Donors>  (118) 
2

>  <Polar Surface Area>  (118) 
89.71

>  <Non-H Atoms>  (118) 
18

>  <sp3-Atoms>  (118) 
2

$$$$
YBKLJTXDSBEVRV-VUVPTNNRNA-N
     RDKit          3D

 27 29  0  0  0  0  0  0  0  0999 V2000
   23.9175    3.3548   62.9834 O   0  0  0  0  0  0  0  0  0  0  0  0
   24.3119    4.4987   62.9786 N   0  0  0  0  0  0  0  0  0  0  0  0
   25.4418    4.8382   63.6987 C   0  0  0  0  0  0  0  0  0  0  0  0
   25.8977    6.2250   63.6897 C   0  0  0  0  0  0  0  0  0  0  0  0
   26.2569    3.8831   64.4742 C   0  0  0  0  0  0  0  0  0  0  0  0
   25.1437    7.1821   63.0936 O   0  0  0  0  0  0  0  0  0  0  0  0
   27.0047    6.5420   64.3696 N   0  0  0  0  0  0  0  0  0  0  0  0
   27.3540    4.3391   65.1308 N   0  0  0  0  0  0  0  0  0  0  0  0
   25.9347    2.5810   64.5267 N   0  0  0  0  0  0  0  0  0  0  0  0
   25.6132    8.5252   63.1036 C   0  0  0  0  0  0  0  0  0  0  0  0
   27.7004    5.6309   65.0657 C   0  0  0  0  0  0  0  0  0  0  0  0
   24.9193    9.2591   61.9883 C   0  0  0  0  0  0  0  0  0  0  0  0
   28.8041    6.0210   65.6955 N   0  0  0  0  0  0  0  0  0  0  0  0
   25.4029    8.6928   60.6605 C   0  0  0  0  0  0  0  0  0  0  0  0
   25.2905   10.7259   62.0890 C   0  0  0  0  0  0  0  0  0  0  0  0
   29.4359    7.2176   65.4358 C   0  0  0  0  0  0  0  0  0  0  0  0
   24.5425    9.3315   59.5931 C   0  0  0  0  0  0  0  0  0  0  0  0
   24.4869   11.4633   61.0314 C   0  0  0  0  0  0  0  0  0  0  0  0
   30.2252    7.7766   66.4416 C   0  0  0  0  0  0  0  0  0  0  0  0
   29.3201    7.8804   64.2122 C   0  0  0  0  0  0  0  0  0  0  0  0
   24.7465   10.8460   59.6460 C   0  0  0  0  0  0  0  0  0  0  0  0
   30.8813    8.9733   66.2735 C   0  0  0  0  0  0  0  0  0  0  0  0
   29.9821    9.1045   64.0443 C   0  0  0  0  0  0  0  0  0  0  0  0
   30.7832    9.6550   65.0619 C   0  0  0  0  0  0  0  0  0  0  0  0
   31.4746   11.0077   64.9207 C   0  0  0  0  0  0  0  0  0  0  0  0
   31.4829   11.7379   65.9050 O   0  0  0  0  0  0  0  0  0  0  0  0
   32.0321   11.5117   63.7137 N   0  0  0  0  0  0  0  0  0  0  0  0
  1  2  2  0
  2  3  1  0
  3  4  2  0
  3  5  1  0
  4  6  1  0
  4  7  1  0
  5  8  2  0
  5  9  1  0
  6 10  1  0
  7 11  2  0
 10 12  1  0
 11 13  1  0
 12 14  1  0
 12 15  1  0
 13 16  1  0
 14 17  1  0
 15 18  1  0
 16 19  2  0
 16 20  1  0
 17 21  1  0
 19 22  1  0
 20 23  2  0
 22 24  2  0
 24 25  1  0
 25 26  2  0
 25 27  1  0
  8 11  1  0
 18 21  1  0
 23 24  1  0
M  END
>  <Molecule Name>  (119) 
YBKLJTXDSBEVRV-VUVPTNNRNA-N

>  <hs_clash>  (119) 
0.0

>  <hs_total>  (119) 
114.84636771974846

>  <Total Molweight>  (119) 
370.412

>  <cLogP>  (119) 
2.5593

>  <H-Acceptors>  (119) 
9

>  <H-Donors>  (119) 
3

>  <Polar Surface Area>  (119) 
145.58

>  <Non-H Atoms>  (119) 
27

>  <sp3-Atoms>  (119) 
8

$$$$
RFSDQDHHBKYQOD-BDGWVKIONA-N
     RDKit          3D

 25 28  0  0  0  0  0  0  0  0999 V2000
   25.6955    7.1171   63.4791 O   0  0  0  0  0  0  0  0  0  0  0  0
   26.3970    6.1528   64.1347 C   0  0  0  0  0  0  0  0  0  0  0  0
   26.0998    8.4932   63.4983 C   0  0  0  0  0  0  0  0  0  0  0  0
   27.5441    6.4366   64.7828 N   0  0  0  0  0  0  0  0  0  0  0  0
   25.8951    4.7691   64.1608 C   0  0  0  0  0  0  0  0  0  0  0  0
   25.2764    9.2509   62.4608 C   0  0  0  0  0  0  0  0  0  0  0  0
   28.2795    5.4929   65.4207 C   0  0  0  0  0  0  0  0  0  0  0  0
   24.8061    4.1053   63.6422 N   0  0  0  0  0  0  0  0  0  0  0  0
   26.7005    3.8335   64.8723 C   0  0  0  0  0  0  0  0  0  0  0  0
   25.5385   10.7520   62.6344 C   0  0  0  0  0  0  0  0  0  0  0  0
   25.6621    8.7487   61.0670 C   0  0  0  0  0  0  0  0  0  0  0  0
   27.8608    4.1938   65.4687 N   0  0  0  0  0  0  0  0  0  0  0  0
   29.4377    5.8587   66.0263 N   0  0  0  0  0  0  0  0  0  0  0  0
   24.9992    2.8072   64.0692 C   0  0  0  0  0  0  0  0  0  0  0  0
   26.1381    2.5861   64.8100 N   0  0  0  0  0  0  0  0  0  0  0  0
   24.9957   11.5718   61.4647 C   0  0  0  0  0  0  0  0  0  0  0  0
   25.0611    9.5987   59.9540 C   0  0  0  0  0  0  0  0  0  0  0  0
   30.0609    7.0603   65.8036 C   0  0  0  0  0  0  0  0  0  0  0  0
   25.5305   11.0381   60.1420 C   0  0  0  0  0  0  0  0  0  0  0  0
   29.9844    7.7509   64.5810 C   0  0  0  0  0  0  0  0  0  0  0  0
   30.8238    7.5991   66.8373 C   0  0  0  0  0  0  0  0  0  0  0  0
   30.6479    8.9728   64.4145 C   0  0  0  0  0  0  0  0  0  0  0  0
   31.4831    8.8133   66.6834 C   0  0  0  0  0  0  0  0  0  0  0  0
   31.4006    9.4992   65.4719 C   0  0  0  0  0  0  0  0  0  0  0  0
   32.0432   10.6627   65.3456 O   0  0  0  0  0  0  0  0  0  0  0  0
  1  2  1  0
  1  3  1  0
  2  4  2  0
  2  5  1  0
  3  6  1  0
  4  7  1  0
  5  8  1  0
  5  9  2  0
  6 10  1  0
  6 11  1  0
  7 12  2  0
  7 13  1  0
  8 14  2  0
  9 15  1  0
 10 16  1  0
 11 17  1  0
 13 18  1  0
 16 19  1  0
 18 20  2  0
 18 21  1  0
 20 22  1  0
 21 23  2  0
 22 24  2  0
 24 25  1  0
  9 12  1  0
 14 15  1  0
 17 19  1  0
 23 24  1  0
M  END
>  <Molecule Name>  (120) 
RFSDQDHHBKYQOD-BDGWVKIONA-N

>  <hs_clash>  (120) 
0.0

>  <hs_total>  (120) 
114.7693591552065

>  <Total Molweight>  (120) 
339.398

>  <cLogP>  (120) 
3.5649

>  <H-Acceptors>  (120) 
7

>  <H-Donors>  (120) 
3

>  <Polar Surface Area>  (120) 
95.95

>  <Non-H Atoms>  (120) 
25

>  <sp3-Atoms>  (120) 
9

$$$$
HIONZGBUTNQAJK-LFNRWQDLNA-N
     RDKit          3D

 27 29  0  0  0  0  0  0  0  0999 V2000
   24.0216    7.1997   62.9197 O   0  0  0  0  0  0  0  0  0  0  0  0
   25.1142    7.8807   62.5877 N   0  0  0  0  0  0  0  0  0  0  0  0
   24.9852    8.8341   61.7061 O   0  0  0  0  0  0  0  0  0  0  0  0
   26.2705    7.5640   63.0968 C   0  0  0  0  0  0  0  0  0  0  0  0
   27.4623    8.4287   63.0535 C   0  0  0  0  0  0  0  0  0  0  0  0
   26.3824    6.2816   63.7375 C   0  0  0  0  0  0  0  0  0  0  0  0
   27.5010    9.6298   62.5109 N   0  0  0  0  0  0  0  0  0  0  0  0
   28.6662    7.9399   63.6373 C   0  0  0  0  0  0  0  0  0  0  0  0
   27.5929    5.8157   64.3194 C   0  0  0  0  0  0  0  0  0  0  0  0
   28.5494    9.9340   61.4767 C   0  0  0  0  0  0  0  0  0  0  0  0
   26.5527   10.7087   62.9808 C   0  0  0  0  0  0  0  0  0  0  0  0
   28.7621    6.6525   64.2660 C   0  0  0  0  0  0  0  0  0  0  0  0
   27.6094    4.5514   64.9191 C   0  0  0  0  0  0  0  0  0  0  0  0
   28.7784   11.4404   61.2829 C   0  0  0  0  0  0  0  0  0  0  0  0
   27.0310   12.1193   62.6150 C   0  0  0  0  0  0  0  0  0  0  0  0
   29.8868    6.2366   64.7866 N   0  0  0  0  0  0  0  0  0  0  0  0
   28.4140    4.2787   65.7868 O   0  0  0  0  0  0  0  0  0  0  0  0
   26.7029    3.5931   64.5451 N   0  0  0  0  0  0  0  0  0  0  0  0
   27.5129   12.0812   61.2888 O   0  0  0  0  0  0  0  0  0  0  0  0
   31.2337    6.8371   64.5144 C   0  0  0  0  0  0  0  0  0  0  0  0
   31.4358    8.0461   65.4014 C   0  0  0  0  0  0  0  0  0  0  0  0
   31.2765    7.9927   66.7914 C   0  0  0  0  0  0  0  0  0  0  0  0
   31.7740    9.3048   64.8902 C   0  0  0  0  0  0  0  0  0  0  0  0
   31.4333    9.0670   67.6130 N   0  0  0  0  0  0  0  0  0  0  0  0
   31.9437   10.4175   65.6685 N   0  0  0  0  0  0  0  0  0  0  0  0
   31.7599   10.2413   67.0102 C   0  0  0  0  0  0  0  0  0  0  0  0
   31.9046   11.2621   67.7610 N   0  0  0  0  0  0  0  0  0  0  0  0
  1  2  2  0
  2  3  1  0
  2  4  1  0
  4  5  2  0
  4  6  1  0
  5  7  1  0
  5  8  1  0
  6  9  2  0
  7 10  1  0
  7 11  1  0
  8 12  2  0
  9 13  1  0
 10 14  1  0
 11 15  1  0
 12 16  1  0
 13 17  2  0
 13 18  1  0
 14 19  1  0
 16 20  1  0
 20 21  1  0
 21 22  2  0
 21 23  1  0
 22 24  1  0
 23 25  2  0
 24 26  2  0
 26 27  1  0
  9 12  1  0
 15 19  1  0
 25 26  1  0
M  CHG  2   2   1   3  -1
M  END
>  <Molecule Name>  (121) 
HIONZGBUTNQAJK-LFNRWQDLNA-N

>  <hs_clash>  (121) 
0.0

>  <hs_total>  (121) 
114.46962761996589

>  <Total Molweight>  (121) 
373.372

>  <cLogP>  (121) 
-1.3116

>  <H-Acceptors>  (121) 
11

>  <H-Donors>  (121) 
3

>  <Polar Surface Area>  (121) 
165.21

>  <Non-H Atoms>  (121) 
27

>  <sp3-Atoms>  (121) 
8

$$$$
ZCRPPLDDHBLUES-HCKMINDGNA-N
     RDKit          3D

 20 22  0  0  0  0  0  0  0  0999 V2000
   29.4128    7.8024   64.2720 O   0  0  0  0  0  0  0  0  0  0  0  0
   30.0406    7.1471   65.1120 C   0  0  0  0  0  0  0  0  0  0  0  0
   29.6636    5.9268   65.5140 N   0  0  0  0  0  0  0  0  0  0  0  0
   31.2806    7.7340   65.7207 C   0  0  0  0  0  0  0  0  0  0  0  0
   28.4914    5.2443   65.0069 C   0  0  0  0  0  0  0  0  0  0  0  0
   27.5453    5.8898   64.1489 N   0  0  0  0  0  0  0  0  0  0  0  0
   28.2148    3.8768   65.3423 N   0  0  0  0  0  0  0  0  0  0  0  0
   26.4816    5.2179   63.7096 C   0  0  0  0  0  0  0  0  0  0  0  0
   27.1356    3.2816   64.8436 C   0  0  0  0  0  0  0  0  0  0  0  0
   25.5348    5.9148   62.7726 C   0  0  0  0  0  0  0  0  0  0  0  0
   26.2920    3.9237   64.0548 C   0  0  0  0  0  0  0  0  0  0  0  0
   25.7825    7.1723   62.1020 N   0  0  0  0  0  0  0  0  0  0  0  0
   24.2064    5.4491   62.2712 C   0  0  0  0  0  0  0  0  0  0  0  0
   24.6752    7.4366   61.2863 C   0  0  0  0  0  0  0  0  0  0  0  0
   26.8112    8.0458   62.1274 C   0  0  0  0  0  0  0  0  0  0  0  0
   23.7499    6.3885   61.4101 N   0  0  0  0  0  0  0  0  0  0  0  0
   23.4319    4.2132   62.6279 C   0  0  0  0  0  0  0  0  0  0  0  0
   24.6413    8.5996   60.5199 C   0  0  0  0  0  0  0  0  0  0  0  0
   26.8053    9.2281   61.3663 C   0  0  0  0  0  0  0  0  0  0  0  0
   25.7063    9.5113   60.5581 C   0  0  0  0  0  0  0  0  0  0  0  0
  1  2  2  0
  2  3  1  0
  2  4  1  0
  3  5  1  0
  5  6  2  0
  5  7  1  0
  6  8  1  0
  7  9  2  0
  8 10  1  0
  8 11  2  0
 10 12  1  0
 10 13  2  0
 12 14  1  0
 12 15  1  0
 13 16  1  0
 13 17  1  0
 14 18  1  0
 15 19  2  0
 18 20  2  0
  9 11  1  0
 14 16  2  0
 19 20  1  0
M  END
>  <Molecule Name>  (122) 
ZCRPPLDDHBLUES-HCKMINDGNA-N

>  <hs_clash>  (122) 
0.0

>  <hs_total>  (122) 
114.23896597561689

>  <Total Molweight>  (122) 
267.291

>  <cLogP>  (122) 
1.3512

>  <H-Acceptors>  (122) 
6

>  <H-Donors>  (122) 
1

>  <Polar Surface Area>  (122) 
72.18

>  <Non-H Atoms>  (122) 
20

>  <sp3-Atoms>  (122) 
2

$$$$
IBUPHWYGVDAASU-UHFFFAOYNA-N
     RDKit          3D

 24 27  0  0  0  0  0  0  0  0999 V2000
   24.7103    3.6179   63.3150 Br  0  0  0  0  0  0  0  0  0  0  0  0
   26.3518    4.2384   63.8622 C   0  0  0  0  0  0  0  0  0  0  0  0
   26.9011    5.4556   63.5409 C   0  0  0  0  0  0  0  0  0  0  0  0
   27.2735    3.5788   64.6828 C   0  0  0  0  0  0  0  0  0  0  0  0
   28.1161    5.5085   64.1565 N   0  0  0  0  0  0  0  0  0  0  0  0
   26.4086    6.5353   62.7329 C   0  0  0  0  0  0  0  0  0  0  0  0
   28.3490    4.3394   64.8706 N   0  0  0  0  0  0  0  0  0  0  0  0
   28.9361    6.6043   64.0375 C   0  0  0  0  0  0  0  0  0  0  0  0
   27.1986    7.6390   62.5981 C   0  0  0  0  0  0  0  0  0  0  0  0
   30.1521    6.5616   64.6870 N   0  0  0  0  0  0  0  0  0  0  0  0
   28.4769    7.6733   63.2584 C   0  0  0  0  0  0  0  0  0  0  0  0
   26.7591    8.8055   61.7828 C   0  0  0  0  0  0  0  0  0  0  0  0
   31.1920    7.5146   64.3137 C   0  0  0  0  0  0  0  0  0  0  0  0
   26.6250    8.7086   60.3862 C   0  0  0  0  0  0  0  0  0  0  0  0
   26.4579   10.0165   62.4067 C   0  0  0  0  0  0  0  0  0  0  0  0
   31.2600    8.5377   65.3934 C   0  0  0  0  0  0  0  0  0  0  0  0
   26.1998    9.8148   59.6357 C   0  0  0  0  0  0  0  0  0  0  0  0
   26.0387   11.1217   61.6600 C   0  0  0  0  0  0  0  0  0  0  0  0
   31.4631    8.1981   66.7353 C   0  0  0  0  0  0  0  0  0  0  0  0
   31.0658    9.8964   65.1232 C   0  0  0  0  0  0  0  0  0  0  0  0
   25.9074   11.0217   60.2726 C   0  0  0  0  0  0  0  0  0  0  0  0
   31.4966    9.1074   67.7100 N   0  0  0  0  0  0  0  0  0  0  0  0
   31.0842   10.8304   66.0820 N   0  0  0  0  0  0  0  0  0  0  0  0
   31.3178   10.3779   67.3269 C   0  0  0  0  0  0  0  0  0  0  0  0
  1  2  1  0
  2  3  2  0
  2  4  1  0
  3  5  1  0
  3  6  1  0
  4  7  2  0
  5  8  1  0
  6  9  2  0
  8 10  1  0
  8 11  2  0
  9 12  1  0
 10 13  1  0
 12 14  2  0
 12 15  1  0
 13 16  1  0
 14 17  1  0
 15 18  2  0
 16 19  2  0
 16 20  1  0
 17 21  2  0
 19 22  1  0
 20 23  2  0
 22 24  2  0
  5  7  1  0
  9 11  1  0
 18 21  1  0
 23 24  1  0
M  END
>  <Molecule Name>  (123) 
IBUPHWYGVDAASU-UHFFFAOYNA-N

>  <hs_clash>  (123) 
0.0

>  <hs_total>  (123) 
114.1303394118034

>  <Total Molweight>  (123) 
380.248

>  <cLogP>  (123) 
2.518

>  <H-Acceptors>  (123) 
5

>  <H-Donors>  (123) 
1

>  <Polar Surface Area>  (123) 
55.11

>  <Non-H Atoms>  (123) 
24

>  <sp3-Atoms>  (123) 
1

$$$$
GTQOUNMUULYWFG-JQHVODBVNA-N
     RDKit          3D

 26 29  0  0  0  0  0  0  0  0999 V2000
   25.5398    7.0598   63.3016 O   0  0  0  0  0  0  0  0  0  0  0  0
   26.2817    6.1888   64.0727 C   0  0  0  0  0  0  0  0  0  0  0  0
   24.5570    6.4858   62.3549 C   0  0  0  0  0  0  0  0  0  0  0  0
   25.8432    4.9106   64.1832 N   0  0  0  0  0  0  0  0  0  0  0  0
   27.4340    6.6415   64.6374 C   0  0  0  0  0  0  0  0  0  0  0  0
   24.5914    7.6441   61.4491 C   0  0  0  0  0  0  0  0  0  0  0  0
   26.6002    4.0339   64.8839 C   0  0  0  0  0  0  0  0  0  0  0  0
   28.0975    7.8662   64.6470 N   0  0  0  0  0  0  0  0  0  0  0  0
   28.1816    5.7268   65.3786 C   0  0  0  0  0  0  0  0  0  0  0  0
   25.1919    7.3251   60.0345 C   0  0  0  0  0  0  0  0  0  0  0  0
   23.2483    8.4234   61.3340 C   0  0  0  0  0  0  0  0  0  0  0  0
   27.7336    4.4218   65.5592 N   0  0  0  0  0  0  0  0  0  0  0  0
   26.1059    2.8531   64.8824 N   0  0  0  0  0  0  0  0  0  0  0  0
   29.2442    7.6924   65.3951 C   0  0  0  0  0  0  0  0  0  0  0  0
   29.2768    6.4087   65.8437 N   0  0  0  0  0  0  0  0  0  0  0  0
   25.7655    8.6703   59.5863 C   0  0  0  0  0  0  0  0  0  0  0  0
   23.6739    9.8042   60.6103 C   0  0  0  0  0  0  0  0  0  0  0  0
   30.1681    8.6049   65.8300 C   0  0  0  0  0  0  0  0  0  0  0  0
   24.5901    9.6422   59.3558 C   0  0  0  0  0  0  0  0  0  0  0  0
   30.7783    9.6120   65.0578 C   0  0  0  0  0  0  0  0  0  0  0  0
   30.4700    8.5888   67.2395 C   0  0  0  0  0  0  0  0  0  0  0  0
   31.7160   10.4615   65.7553 C   0  0  0  0  0  0  0  0  0  0  0  0
   30.5110    9.6863   63.6534 C   0  0  0  0  0  0  0  0  0  0  0  0
   31.3536    9.4627   67.8876 C   0  0  0  0  0  0  0  0  0  0  0  0
   32.3286   11.4086   65.0314 O   0  0  0  0  0  0  0  0  0  0  0  0
   32.0315   10.4158   67.1290 C   0  0  0  0  0  0  0  0  0  0  0  0
  1  2  1  0
  1  3  1  0
  2  4  2  0
  2  5  1  0
  3  6  1  0
  4  7  1  0
  5  8  1  0
  5  9  2  0
  6 10  1  0
  6 11  1  0
  7 12  2  0
  7 13  1  0
  8 14  2  0
  9 15  1  0
 10 16  1  0
 11 17  1  0
 14 18  1  0
 16 19  1  0
 18 20  2  0
 18 21  1  0
 20 22  1  0
 20 23  1  0
 21 24  2  0
 22 25  1  0
 22 26  2  0
  9 12  1  0
 14 15  1  0
 17 19  1  0
 24 26  1  0
M  END
>  <Molecule Name>  (124) 
GTQOUNMUULYWFG-JQHVODBVNA-N

>  <hs_clash>  (124) 
0.0

>  <hs_total>  (124) 
113.88836034297579

>  <Total Molweight>  (124) 
353.425

>  <cLogP>  (124) 
3.3441

>  <H-Acceptors>  (124) 
7

>  <H-Donors>  (124) 
3

>  <Polar Surface Area>  (124) 
109.94

>  <Non-H Atoms>  (124) 
26

>  <sp3-Atoms>  (124) 
10

$$$$
XNRIWHPUEZHUFJ-BUKGPZPNNA-N
     RDKit          3D

 26 28  0  0  0  0  0  0  0  0999 V2000
   33.2393   10.6351   64.7035 S   0  0  0  0  0  0  0  0  0  0  0  0
   34.3217   10.1162   63.8980 O   0  0  0  0  0  0  0  0  0  0  0  0
   33.7651   11.1690   65.9567 O   0  0  0  0  0  0  0  0  0  0  0  0
   32.4140   11.8258   63.8350 N   0  0  0  0  0  0  0  0  0  0  0  0
   32.1611    9.2761   65.0177 C   0  0  0  0  0  0  0  0  0  0  0  0
   31.1568    8.9435   64.0743 C   0  0  0  0  0  0  0  0  0  0  0  0
   32.3175    8.5177   66.2029 C   0  0  0  0  0  0  0  0  0  0  0  0
   30.3061    7.8413   64.3168 C   0  0  0  0  0  0  0  0  0  0  0  0
   31.4788    7.4264   66.4461 C   0  0  0  0  0  0  0  0  0  0  0  0
   30.4563    7.0620   65.5115 C   0  0  0  0  0  0  0  0  0  0  0  0
   29.7223    6.0247   65.8086 N   0  0  0  0  0  0  0  0  0  0  0  0
   28.7209    5.4879   65.1444 C   0  0  0  0  0  0  0  0  0  0  0  0
   27.6568    6.3385   64.0883 S   0  0  0  0  0  0  0  0  0  0  0  0
   28.4583    4.2094   65.2711 N   0  0  0  0  0  0  0  0  0  0  0  0
   26.7603    4.8882   63.7595 C   0  0  0  0  0  0  0  0  0  0  0  0
   27.3475    3.8565   64.4901 C   0  0  0  0  0  0  0  0  0  0  0  0
   25.6406    4.7653   62.9107 C   0  0  0  0  0  0  0  0  0  0  0  0
   26.9116    2.6612   64.4596 N   0  0  0  0  0  0  0  0  0  0  0  0
   25.0253    3.6965   62.8812 O   0  0  0  0  0  0  0  0  0  0  0  0
   25.1896    5.8260   62.1025 C   0  0  0  0  0  0  0  0  0  0  0  0
   26.0984    6.6492   61.3422 C   0  0  0  0  0  0  0  0  0  0  0  0
   23.7938    6.1065   62.0309 C   0  0  0  0  0  0  0  0  0  0  0  0
   25.6014    7.7301   60.5359 C   0  0  0  0  0  0  0  0  0  0  0  0
   23.3117    7.1764   61.2296 C   0  0  0  0  0  0  0  0  0  0  0  0
   26.4077    8.4715   59.8616 N   0  0  0  0  0  0  0  0  0  0  0  0
   24.2106    7.9881   60.4859 C   0  0  0  0  0  0  0  0  0  0  0  0
  1  2  2  0
  1  3  2  0
  1  4  1  0
  1  5  1  0
  5  6  2  0
  5  7  1  0
  6  8  1  0
  7  9  2  0
  8 10  2  0
 10 11  1  0
 11 12  1  0
 12 13  1  0
 12 14  2  0
 13 15  1  0
 14 16  1  0
 15 17  1  0
 16 18  1  0
 17 19  2  0
 17 20  1  0
 20 21  2  0
 20 22  1  0
 21 23  1  0
 22 24  2  0
 23 25  1  0
 23 26  2  0
  9 10  1  0
 15 16  2  0
 24 26  1  0
M  END
>  <Molecule Name>  (125) 
XNRIWHPUEZHUFJ-BUKGPZPNNA-N

>  <hs_clash>  (125) 
3.0

>  <hs_total>  (125) 
113.33564871319463

>  <Total Molweight>  (125) 
389.459

>  <cLogP>  (125) 
1.7883

>  <H-Acceptors>  (125) 
8

>  <H-Donors>  (125) 
4

>  <Polar Surface Area>  (125) 
190.81

>  <Non-H Atoms>  (125) 
26

>  <sp3-Atoms>  (125) 
1

$$$$
ZOBRPBVIEUWYJR-OECRTTLXNA-M
     RDKit          3D

 24 27  0  0  0  0  0  0  0  0999 V2000
   22.0403    8.0250   61.2851 O   0  0  0  0  0  0  0  0  0  0  0  0
   22.4268    6.7789   61.7108 C   0  0  0  0  0  0  0  0  0  0  0  0
   21.8192    5.7444   61.4336 O   0  0  0  0  0  0  0  0  0  0  0  0
   23.6889    6.8229   62.5627 C   0  0  0  0  0  0  0  0  0  0  0  0
   24.3735    7.9891   62.8738 N   0  0  0  0  0  0  0  0  0  0  0  0
   24.3496    5.7502   63.1532 C   0  0  0  0  0  0  0  0  0  0  0  0
   25.4511    7.6965   63.6435 N   0  0  0  0  0  0  0  0  0  0  0  0
   25.4714    6.2934   63.8432 C   0  0  0  0  0  0  0  0  0  0  0  0
   24.0127    4.2245   63.1940 C   0  0  0  0  0  0  0  0  0  0  0  0
   26.3508    8.7960   64.1078 C   0  0  0  0  0  0  0  0  0  0  0  0
   26.3987    5.4770   64.5775 C   0  0  0  0  0  0  0  0  0  0  0  0
   24.7455    3.4316   64.3345 C   0  0  0  0  0  0  0  0  0  0  0  0
   27.5839    5.9680   64.9840 N   0  0  0  0  0  0  0  0  0  0  0  0
   26.0673    4.0784   64.8464 C   0  0  0  0  0  0  0  0  0  0  0  0
   28.4400    5.1738   65.6213 C   0  0  0  0  0  0  0  0  0  0  0  0
   27.0605    3.3229   65.5326 C   0  0  0  0  0  0  0  0  0  0  0  0
   28.2273    3.8816   65.9074 N   0  0  0  0  0  0  0  0  0  0  0  0
   29.6710    5.8261   65.9981 N   0  0  0  0  0  0  0  0  0  0  0  0
   30.2350    7.1588   65.8619 C   0  0  0  0  0  0  0  0  0  0  0  0
   30.0637    7.9769   64.6958 C   0  0  0  0  0  0  0  0  0  0  0  0
   30.9965    7.6649   66.9590 C   0  0  0  0  0  0  0  0  0  0  0  0
   30.6444    9.2697   64.6381 C   0  0  0  0  0  0  0  0  0  0  0  0
   31.5764    8.9591   66.8975 C   0  0  0  0  0  0  0  0  0  0  0  0
   31.3980    9.7583   65.7372 C   0  0  0  0  0  0  0  0  0  0  0  0
  1  2  2  0
  2  3  1  0
  2  4  1  0
  4  5  2  0
  4  6  1  0
  5  7  1  0
  6  8  2  0
  6  9  1  0
  7 10  1  0
  8 11  1  0
  9 12  1  0
 11 13  2  0
 11 14  1  0
 13 15  1  0
 14 16  2  0
 15 17  2  0
 15 18  1  0
 18 19  1  0
 19 20  2  0
 19 21  1  0
 20 22  1  0
 21 23  2  0
 22 24  2  0
  7  8  1  0
 12 14  1  0
 16 17  1  0
 23 24  1  0
M  CHG  1   3  -1
M  END
>  <Molecule Name>  (126) 
ZOBRPBVIEUWYJR-OECRTTLXNA-M

>  <hs_clash>  (126) 
0.0

>  <hs_total>  (126) 
112.7108955999907

>  <Total Molweight>  (126) 
320.331

>  <cLogP>  (126) 
-0.1643

>  <H-Acceptors>  (126) 
7

>  <H-Donors>  (126) 
1

>  <Polar Surface Area>  (126) 
95.76

>  <Non-H Atoms>  (126) 
24

>  <sp3-Atoms>  (126) 
4

$$$$
JOUPSJAGJHYWLM-PZWAIHAUNA-N
     RDKit          3D

 13 14  0  0  0  0  0  0  0  0999 V2000
   28.8909    7.4542   64.3018 O   0  0  0  0  0  0  0  0  0  0  0  0
   29.1761    6.4088   64.8970 C   0  0  0  0  0  0  0  0  0  0  0  0
   30.1739    6.3217   65.7786 N   0  0  0  0  0  0  0  0  0  0  0  0
   28.4055    5.1395   64.6773 C   0  0  0  0  0  0  0  0  0  0  0  0
   30.9575    7.4271   66.0843 N   0  0  0  0  0  0  0  0  0  0  0  0
   28.6338    3.9822   65.2645 N   0  0  0  0  0  0  0  0  0  0  0  0
   27.2850    5.0505   63.7590 C   0  0  0  0  0  0  0  0  0  0  0  0
   27.7113    3.1127   64.7766 N   0  0  0  0  0  0  0  0  0  0  0  0
   26.8453    3.6745   63.8553 C   0  0  0  0  0  0  0  0  0  0  0  0
   26.5655    5.9123   62.8547 C   0  0  0  0  0  0  0  0  0  0  0  0
   25.7444    3.1679   63.0941 C   0  0  0  0  0  0  0  0  0  0  0  0
   25.4586    5.4135   62.0845 C   0  0  0  0  0  0  0  0  0  0  0  0
   25.0502    4.0469   62.2019 C   0  0  0  0  0  0  0  0  0  0  0  0
  1  2  2  0
  2  3  1  0
  2  4  1  0
  3  5  1  0
  4  6  2  0
  4  7  1  0
  6  8  1  0
  7  9  2  0
  7 10  1  0
  9 11  1  0
 10 12  2  0
 11 13  2  0
  8  9  1  0
 12 13  1  0
M  END
>  <Molecule Name>  (127) 
JOUPSJAGJHYWLM-PZWAIHAUNA-N

>  <hs_clash>  (127) 
0.0

>  <hs_total>  (127) 
112.70744865931833

>  <Total Molweight>  (127) 
176.179

>  <cLogP>  (127) 
-0.7527

>  <H-Acceptors>  (127) 
5

>  <H-Donors>  (127) 
3

>  <Polar Surface Area>  (127) 
83.8

>  <Non-H Atoms>  (127) 
13

>  <sp3-Atoms>  (127) 
1

$$$$
BKUMVXIXUVYKDQ-VENDMBCDNA-N
     RDKit          3D

 23 25  0  0  0  0  0  0  0  0999 V2000
   31.7185   11.2175   64.2247 S   0  0  0  0  0  0  0  0  0  0  0  0
   32.7522   10.8729   63.1978 O   0  0  0  0  0  0  0  0  0  0  0  0
   32.3969   11.4951   65.5423 O   0  0  0  0  0  0  0  0  0  0  0  0
   30.9019   12.5441   63.7411 N   0  0  0  0  0  0  0  0  0  0  0  0
   30.5884    9.8548   64.4095 C   0  0  0  0  0  0  0  0  0  0  0  0
   30.7386    8.9603   65.4727 C   0  0  0  0  0  0  0  0  0  0  0  0
   29.5562    9.6753   63.4892 C   0  0  0  0  0  0  0  0  0  0  0  0
   29.8578    7.8878   65.6110 C   0  0  0  0  0  0  0  0  0  0  0  0
   28.6752    8.6056   63.6314 C   0  0  0  0  0  0  0  0  0  0  0  0
   28.8235    7.7123   64.6940 C   0  0  0  0  0  0  0  0  0  0  0  0
   27.9433    6.6364   64.8210 C   0  0  0  0  0  0  0  0  0  0  0  0
   26.6997    6.5662   64.2920 O   0  0  0  0  0  0  0  0  0  0  0  0
   28.1894    5.4786   65.4451 C   0  0  0  0  0  0  0  0  0  0  0  0
   26.1861    5.3522   64.6121 C   0  0  0  0  0  0  0  0  0  0  0  0
   27.1085    4.6920   65.3198 C   0  0  0  0  0  0  0  0  0  0  0  0
   24.8387    4.8453   64.2316 C   0  0  0  0  0  0  0  0  0  0  0  0
   24.2167    5.3300   63.1309 C   0  0  0  0  0  0  0  0  0  0  0  0
   24.1721    6.9377   62.7069 S   0  0  0  0  0  0  0  0  0  0  0  0
   23.5231    4.5458   62.2068 C   0  0  0  0  0  0  0  0  0  0  0  0
   23.2640    6.6133   61.3325 C   0  0  0  0  0  0  0  0  0  0  0  0
   23.4026    3.3285   62.2879 O   0  0  0  0  0  0  0  0  0  0  0  0
   22.9962    5.2961   61.1998 N   0  0  0  0  0  0  0  0  0  0  0  0
   22.8519    7.5455   60.4776 N   0  0  0  0  0  0  0  0  0  0  0  0
  1  2  2  0
  1  3  2  0
  1  4  1  0
  1  5  1  0
  5  6  2  0
  5  7  1  0
  6  8  1  0
  7  9  2  0
  8 10  2  0
 10 11  1  0
 11 12  1  0
 11 13  2  0
 12 14  1  0
 13 15  1  0
 14 16  1  0
 16 17  2  0
 17 18  1  0
 17 19  1  0
 18 20  1  0
 19 21  2  0
 19 22  1  0
 20 23  2  0
  9 10  1  0
 14 15  2  0
 20 22  1  0
M  END
>  <Molecule Name>  (128) 
BKUMVXIXUVYKDQ-VENDMBCDNA-N

>  <hs_clash>  (128) 
5.0

>  <hs_total>  (128) 
112.6836320031489

>  <Total Molweight>  (128) 
349.390

>  <cLogP>  (128) 
0.7933

>  <H-Acceptors>  (128) 
7

>  <H-Donors>  (128) 
3

>  <Polar Surface Area>  (128) 
159.93

>  <Non-H Atoms>  (128) 
23

>  <sp3-Atoms>  (128) 
2

$$$$
JYLDWTJXERPEGH-YAQRNVERNA-N
     RDKit          3D

 18 19  0  0  0  0  0  0  0  0999 V2000
   27.7534    6.5954   64.1985 S   0  0  0  0  0  0  0  0  0  0  0  0
   28.7841    5.7053   65.2768 C   0  0  0  0  0  0  0  0  0  0  0  0
   26.9542    5.1024   63.8148 C   0  0  0  0  0  0  0  0  0  0  0  0
   28.5322    4.3894   65.3401 N   0  0  0  0  0  0  0  0  0  0  0  0
   29.7924    6.2562   66.0212 N   0  0  0  0  0  0  0  0  0  0  0  0
   27.5256    4.0444   64.5371 C   0  0  0  0  0  0  0  0  0  0  0  0
   25.8957    4.9951   62.9070 C   0  0  0  0  0  0  0  0  0  0  0  0
   30.1261    7.6616   65.8866 C   0  0  0  0  0  0  0  0  0  0  0  0
   27.1396    2.7627   64.4622 N   0  0  0  0  0  0  0  0  0  0  0  0
   25.3273    3.7863   62.6631 O   0  0  0  0  0  0  0  0  0  0  0  0
   25.2936    6.1361   62.1418 C   0  0  0  0  0  0  0  0  0  0  0  0
   31.3942    7.8269   65.1071 C   0  0  0  0  0  0  0  0  0  0  0  0
   26.0934    7.0593   61.3950 C   0  0  0  0  0  0  0  0  0  0  0  0
   23.8648    6.2979   62.1619 C   0  0  0  0  0  0  0  0  0  0  0  0
   31.3977    7.8183   63.6443 C   0  0  0  0  0  0  0  0  0  0  0  0
   25.4612    8.1173   60.6904 C   0  0  0  0  0  0  0  0  0  0  0  0
   23.2773    7.3690   61.4420 C   0  0  0  0  0  0  0  0  0  0  0  0
   24.0806    8.2424   60.7321 N   0  0  0  0  0  0  0  0  0  0  0  0
  1  2  1  0
  1  3  1  0
  2  4  2  0
  2  5  1  0
  3  6  2  0
  3  7  1  0
  5  8  1  0
  6  9  1  0
  7 10  2  0
  7 11  1  0
  8 12  1  0
 11 13  2  0
 11 14  1  0
 12 15  2  0
 13 16  1  0
 14 17  2  0
 16 18  2  0
  4  6  1  0
 17 18  1  0
M  END
>  <Molecule Name>  (129) 
JYLDWTJXERPEGH-YAQRNVERNA-N

>  <hs_clash>  (129) 
0.0

>  <hs_total>  (129) 
112.62951245631848

>  <Total Molweight>  (129) 
260.320

>  <cLogP>  (129) 
1.4925

>  <H-Acceptors>  (129) 
5

>  <H-Donors>  (129) 
2

>  <Polar Surface Area>  (129) 
109.14

>  <Non-H Atoms>  (129) 
18

>  <sp3-Atoms>  (129) 
1

$$$$
MAZWTJAWJKKDKQ-BUKGPZPNNA-N
     RDKit          3D

 27 29  0  0  0  0  0  0  0  0999 V2000
   33.1411   10.5339   64.8069 S   0  0  0  0  0  0  0  0  0  0  0  0
   34.3415    9.9672   63.9330 O   0  0  0  0  0  0  0  0  0  0  0  0
   33.6655   11.1187   66.2142 O   0  0  0  0  0  0  0  0  0  0  0  0
   32.4008   11.6481   63.9834 N   0  0  0  0  0  0  0  0  0  0  0  0
   32.1686    9.2840   65.0573 C   0  0  0  0  0  0  0  0  0  0  0  0
   31.0895    8.9929   64.1032 C   0  0  0  0  0  0  0  0  0  0  0  0
   32.3763    8.4286   66.2359 C   0  0  0  0  0  0  0  0  0  0  0  0
   30.2582    7.8733   64.3322 C   0  0  0  0  0  0  0  0  0  0  0  0
   31.5442    7.2985   66.4772 C   0  0  0  0  0  0  0  0  0  0  0  0
   30.4623    6.9757   65.5390 C   0  0  0  0  0  0  0  0  0  0  0  0
   29.7046    5.8660   65.8199 N   0  0  0  0  0  0  0  0  0  0  0  0
   28.6447    5.3422   65.1114 C   0  0  0  0  0  0  0  0  0  0  0  0
   27.6008    6.2005   64.0192 S   0  0  0  0  0  0  0  0  0  0  0  0
   28.3524    4.0510   65.2472 N   0  0  0  0  0  0  0  0  0  0  0  0
   26.7533    4.7382   63.7492 C   0  0  0  0  0  0  0  0  0  0  0  0
   27.2909    3.7016   64.4886 C   0  0  0  0  0  0  0  0  0  0  0  0
   25.5673    4.6346   62.8079 C   0  0  0  0  0  0  0  0  0  0  0  0
   26.8204    2.4347   64.4667 N   0  0  0  0  0  0  0  0  0  0  0  0
   24.9552    3.4389   62.6774 O   0  0  0  0  0  0  0  0  0  0  0  0
   25.1003    5.8360   62.0337 C   0  0  0  0  0  0  0  0  0  0  0  0
   23.6824    6.2814   62.0135 C   0  0  0  0  0  0  0  0  0  0  0  0
   26.1037    6.6043   61.2541 C   0  0  0  0  0  0  0  0  0  0  0  0
   23.3054    7.4683   61.2377 C   0  0  0  0  0  0  0  0  0  0  0  0
   25.7472    7.7726   60.4896 C   0  0  0  0  0  0  0  0  0  0  0  0
   24.3301    8.2272   60.4730 C   0  0  0  0  0  0  0  0  0  0  0  0
   23.9829    9.3613   59.7407 O   0  0  0  0  0  0  0  0  0  0  0  0
   24.8301   10.1254   59.0139 C   0  0  0  0  0  0  0  0  0  0  0  0
  1  2  2  0
  1  3  2  0
  1  4  1  0
  1  5  1  0
  5  6  2  0
  5  7  1  0
  6  8  1  0
  7  9  2  0
  8 10  2  0
 10 11  1  0
 11 12  1  0
 12 13  1  0
 12 14  2  0
 13 15  1  0
 14 16  1  0
 15 17  1  0
 16 18  1  0
 17 19  2  0
 17 20  1  0
 20 21  2  0
 20 22  1  0
 21 23  1  0
 22 24  2  0
 23 25  2  0
 25 26  1  0
 26 27  1  0
  9 10  1  0
 15 16  2  0
 24 25  1  0
M  END
>  <Molecule Name>  (130) 
MAZWTJAWJKKDKQ-BUKGPZPNNA-N

>  <hs_clash>  (130) 
1.0

>  <hs_total>  (130) 
110.928909045587

>  <Total Molweight>  (130) 
404.470

>  <cLogP>  (130) 
2.3956

>  <H-Acceptors>  (130) 
8

>  <H-Donors>  (130) 
3

>  <Polar Surface Area>  (130) 
174.02

>  <Non-H Atoms>  (130) 
27

>  <sp3-Atoms>  (130) 
3

$$$$
WGWGFHMTAVZKKS-BUKGPZPNNA-N
     RDKit          3D

 27 29  0  0  0  0  0  0  0  0999 V2000
   33.1520   10.5701   64.7488 S   0  0  0  0  0  0  0  0  0  0  0  0
   34.3625   10.0029   63.8511 O   0  0  0  0  0  0  0  0  0  0  0  0
   33.7033   11.1556   66.1711 O   0  0  0  0  0  0  0  0  0  0  0  0
   32.4141   11.6860   63.9525 N   0  0  0  0  0  0  0  0  0  0  0  0
   32.1588    9.3434   65.0275 C   0  0  0  0  0  0  0  0  0  0  0  0
   31.1052    9.0406   64.0847 C   0  0  0  0  0  0  0  0  0  0  0  0
   32.3265    8.5282   66.2255 C   0  0  0  0  0  0  0  0  0  0  0  0
   30.2459    7.9480   64.3304 C   0  0  0  0  0  0  0  0  0  0  0  0
   31.4653    7.4260   66.4767 C   0  0  0  0  0  0  0  0  0  0  0  0
   30.4035    7.0990   65.5384 C   0  0  0  0  0  0  0  0  0  0  0  0
   29.6059    6.0087   65.8315 N   0  0  0  0  0  0  0  0  0  0  0  0
   28.5506    5.4866   65.1261 C   0  0  0  0  0  0  0  0  0  0  0  0
   27.5526    6.3160   63.9831 S   0  0  0  0  0  0  0  0  0  0  0  0
   28.2227    4.2031   65.3144 N   0  0  0  0  0  0  0  0  0  0  0  0
   26.6714    4.8708   63.7647 C   0  0  0  0  0  0  0  0  0  0  0  0
   27.1631    3.8489   64.5537 C   0  0  0  0  0  0  0  0  0  0  0  0
   25.5149    4.7747   62.8190 C   0  0  0  0  0  0  0  0  0  0  0  0
   26.6590    2.6003   64.5753 N   0  0  0  0  0  0  0  0  0  0  0  0
   24.8513    3.6014   62.7123 O   0  0  0  0  0  0  0  0  0  0  0  0
   25.1229    5.9651   62.0006 C   0  0  0  0  0  0  0  0  0  0  0  0
   23.7863    6.5483   62.0873 C   0  0  0  0  0  0  0  0  0  0  0  0
   26.1075    6.5682   61.0965 C   0  0  0  0  0  0  0  0  0  0  0  0
   23.4496    7.7021   61.2944 C   0  0  0  0  0  0  0  0  0  0  0  0
   25.7858    7.7149   60.3006 C   0  0  0  0  0  0  0  0  0  0  0  0
   22.1614    8.2391   61.4107 O   0  0  0  0  0  0  0  0  0  0  0  0
   24.4414    8.2945   60.3985 C   0  0  0  0  0  0  0  0  0  0  0  0
   21.7341    9.3080   60.7359 C   0  0  0  0  0  0  0  0  0  0  0  0
  1  2  2  0
  1  3  2  0
  1  4  1  0
  1  5  1  0
  5  6  2  0
  5  7  1  0
  6  8  1  0
  7  9  2  0
  8 10  2  0
 10 11  1  0
 11 12  1  0
 12 13  1  0
 12 14  2  0
 13 15  1  0
 14 16  1  0
 15 17  1  0
 16 18  1  0
 17 19  2  0
 17 20  1  0
 20 21  2  0
 20 22  1  0
 21 23  1  0
 22 24  2  0
 23 25  1  0
 23 26  2  0
 25 27  1  0
  9 10  1  0
 15 16  2  0
 24 26  1  0
M  END
>  <Molecule Name>  (131) 
WGWGFHMTAVZKKS-BUKGPZPNNA-N

>  <hs_clash>  (131) 
1.0

>  <hs_total>  (131) 
110.20647302876142

>  <Total Molweight>  (131) 
404.470

>  <cLogP>  (131) 
2.3956

>  <H-Acceptors>  (131) 
8

>  <H-Donors>  (131) 
3

>  <Polar Surface Area>  (131) 
174.02

>  <Non-H Atoms>  (131) 
27

>  <sp3-Atoms>  (131) 
3

$$$$
GPGNHDACAOAHAF-IUZKZMDSNA-M
     RDKit          3D

 28 31  0  0  0  0  0  0  0  0999 V2000
   32.5116   10.9635   63.5543 O   0  0  0  0  0  0  0  0  0  0  0  0
   31.8883   11.3161   64.5934 C   0  0  0  0  0  0  0  0  0  0  0  0
   31.6373   12.5502   64.7824 O   0  0  0  0  0  0  0  0  0  0  0  0
   31.4164   10.3125   65.4770 C   0  0  0  0  0  0  0  0  0  0  0  0
   30.4195    9.4138   65.0359 C   0  0  0  0  0  0  0  0  0  0  0  0
   31.9765   10.1978   66.7618 C   0  0  0  0  0  0  0  0  0  0  0  0
   29.9373    8.3925   65.9252 C   0  0  0  0  0  0  0  0  0  0  0  0
   29.8743    9.5439   63.7123 C   0  0  0  0  0  0  0  0  0  0  0  0
   31.4937    9.1928   67.6295 C   0  0  0  0  0  0  0  0  0  0  0  0
   28.9791    7.5002   65.5562 C   0  0  0  0  0  0  0  0  0  0  0  0
   30.5035    8.2910   67.2007 C   0  0  0  0  0  0  0  0  0  0  0  0
   27.8593    7.7152   64.8500 N   0  0  0  0  0  0  0  0  0  0  0  0
   29.0364    6.1749   65.8388 N   0  0  0  0  0  0  0  0  0  0  0  0
   27.2284    6.5026   64.7420 C   0  0  0  0  0  0  0  0  0  0  0  0
   27.9545    5.5524   65.3838 C   0  0  0  0  0  0  0  0  0  0  0  0
   26.0699    6.1182   64.1472 C   0  0  0  0  0  0  0  0  0  0  0  0
   27.5965    4.2479   65.4038 N   0  0  0  0  0  0  0  0  0  0  0  0
   25.3311    7.1225   63.5702 O   0  0  0  0  0  0  0  0  0  0  0  0
   25.6795    4.8132   64.1373 N   0  0  0  0  0  0  0  0  0  0  0  0
   26.4635    3.8863   64.7712 C   0  0  0  0  0  0  0  0  0  0  0  0
   24.2978    6.6948   62.6365 C   0  0  0  0  0  0  0  0  0  0  0  0
   26.0506    2.6304   64.7915 N   0  0  0  0  0  0  0  0  0  0  0  0
   24.5387    7.7098   61.5970 C   0  0  0  0  0  0  0  0  0  0  0  0
   25.3841    7.1620   60.4273 C   0  0  0  0  0  0  0  0  0  0  0  0
   23.2288    8.2729   61.0657 C   0  0  0  0  0  0  0  0  0  0  0  0
   25.8956    8.3474   59.6794 C   0  0  0  0  0  0  0  0  0  0  0  0
   23.6909    9.6241   60.3350 C   0  0  0  0  0  0  0  0  0  0  0  0
   24.7241    9.2811   59.2143 C   0  0  0  0  0  0  0  0  0  0  0  0
  1  2  2  0
  2  3  1  0
  2  4  1  0
  4  5  2  0
  4  6  1  0
  5  7  1  0
  5  8  1  0
  6  9  2  0
  7 10  1  0
  7 11  2  0
 10 12  2  0
 10 13  1  0
 12 14  1  0
 13 15  1  0
 14 16  2  0
 15 17  2  0
 16 18  1  0
 16 19  1  0
 17 20  1  0
 18 21  1  0
 20 22  1  0
 21 23  1  0
 23 24  1  0
 23 25  1  0
 24 26  1  0
 25 27  1  0
 26 28  1  0
  9 11  1  0
 14 15  1  0
 19 20  2  0
 27 28  1  0
M  CHG  1   3  -1
M  END
>  <Molecule Name>  (132) 
GPGNHDACAOAHAF-IUZKZMDSNA-M

>  <hs_clash>  (132) 
1.0

>  <hs_total>  (132) 
109.95463175766645

>  <Total Molweight>  (132) 
380.427

>  <cLogP>  (132) 
0.9285

>  <H-Acceptors>  (132) 
8

>  <H-Donors>  (132) 
2

>  <Polar Surface Area>  (132) 
129.84

>  <Non-H Atoms>  (132) 
28

>  <sp3-Atoms>  (132) 
10

$$$$
AIINAKYQKGXDFN-CMJYGJQNNA-N
     RDKit          3D

 29 31  0  0  0  0  0  0  0  0999 V2000
   33.3017   10.5908   64.7895 S   0  0  0  0  0  0  0  0  0  0  0  0
   34.4038   10.0754   64.0190 O   0  0  0  0  0  0  0  0  0  0  0  0
   33.7837   11.1210   66.0487 O   0  0  0  0  0  0  0  0  0  0  0  0
   32.5298   11.7775   63.8842 N   0  0  0  0  0  0  0  0  0  0  0  0
   32.2204    9.2439   65.0965 C   0  0  0  0  0  0  0  0  0  0  0  0
   32.3840    8.4617   66.2743 C   0  0  0  0  0  0  0  0  0  0  0  0
   31.2116    8.9362   64.1636 C   0  0  0  0  0  0  0  0  0  0  0  0
   31.5269    7.3653   66.5043 C   0  0  0  0  0  0  0  0  0  0  0  0
   30.3565    7.8488   64.3873 C   0  0  0  0  0  0  0  0  0  0  0  0
   30.5018    7.0414   65.5611 C   0  0  0  0  0  0  0  0  0  0  0  0
   29.7564    6.0200   65.8282 N   0  0  0  0  0  0  0  0  0  0  0  0
   28.8129    5.4723   65.1246 C   0  0  0  0  0  0  0  0  0  0  0  0
   27.7403    6.3063   64.0395 S   0  0  0  0  0  0  0  0  0  0  0  0
   28.6125    4.1898   65.2239 N   0  0  0  0  0  0  0  0  0  0  0  0
   26.9522    4.8183   63.6843 C   0  0  0  0  0  0  0  0  0  0  0  0
   27.5627    3.8047   64.4208 C   0  0  0  0  0  0  0  0  0  0  0  0
   25.8815    4.6492   62.7997 C   0  0  0  0  0  0  0  0  0  0  0  0
   27.1856    2.5882   64.3611 N   0  0  0  0  0  0  0  0  0  0  0  0
   25.3578    3.5545   62.6870 O   0  0  0  0  0  0  0  0  0  0  0  0
   25.4133    5.6926   62.0254 C   0  0  0  0  0  0  0  0  0  0  0  0
   24.0138    5.9767   61.9957 C   0  0  0  0  0  0  0  0  0  0  0  0
   26.3110    6.4958   61.2487 C   0  0  0  0  0  0  0  0  0  0  0  0
   23.5295    7.0428   61.2070 C   0  0  0  0  0  0  0  0  0  0  0  0
   25.8177    7.5680   60.4609 C   0  0  0  0  0  0  0  0  0  0  0  0
   24.4283    7.8362   60.4445 C   0  0  0  0  0  0  0  0  0  0  0  0
   23.7932    9.1814   59.4519 S   0  0  0  0  0  0  0  0  0  0  0  0
   22.5173    9.5837   60.0103 O   0  0  0  0  0  0  0  0  0  0  0  0
   24.7289   10.2782   59.4631 O   0  0  0  0  0  0  0  0  0  0  0  0
   23.5647    8.6328   57.8684 N   0  0  0  0  0  0  0  0  0  0  0  0
  1  2  2  0
  1  3  2  0
  1  4  1  0
  1  5  1  0
  5  6  2  0
  5  7  1  0
  6  8  1  0
  7  9  2  0
  8 10  2  0
 10 11  1  0
 11 12  1  0
 12 13  1  0
 12 14  2  0
 13 15  1  0
 14 16  1  0
 15 17  1  0
 16 18  1  0
 17 19  2  0
 17 20  1  0
 20 21  2  0
 20 22  1  0
 21 23  1  0
 22 24  2  0
 23 25  2  0
 25 26  1  0
 26 27  2  0
 26 28  2  0
 26 29  1  0
  9 10  1  0
 15 16  2  0
 24 25  1  0
M  END
>  <Molecule Name>  (133) 
AIINAKYQKGXDFN-CMJYGJQNNA-N

>  <hs_clash>  (133) 
3.0

>  <hs_total>  (133) 
109.40471380402934

>  <Total Molweight>  (133) 
453.523

>  <cLogP>  (133) 
1.2296

>  <H-Acceptors>  (133) 
10

>  <H-Donors>  (133) 
4

>  <Polar Surface Area>  (133) 
233.33

>  <Non-H Atoms>  (133) 
29

>  <sp3-Atoms>  (133) 
2

$$$$
LWEUMOYBSFDLPX-VFSNKAIFNA-N
     RDKit          3D

 24 26  0  0  0  0  0  0  0  0999 V2000
   27.7122    6.3419   63.8452 S   0  0  0  0  0  0  0  0  0  0  0  0
   28.7424    5.5061   64.9746 C   0  0  0  0  0  0  0  0  0  0  0  0
   26.8117    4.9104   63.6900 C   0  0  0  0  0  0  0  0  0  0  0  0
   28.3805    4.2357   65.2118 N   0  0  0  0  0  0  0  0  0  0  0  0
   29.8556    6.0014   65.6136 N   0  0  0  0  0  0  0  0  0  0  0  0
   27.2964    3.8977   64.4969 C   0  0  0  0  0  0  0  0  0  0  0  0
   25.6398    4.7810   62.7794 C   0  0  0  0  0  0  0  0  0  0  0  0
   30.4273    7.2476   65.5099 C   0  0  0  0  0  0  0  0  0  0  0  0
   26.7916    2.7317   64.5560 N   0  0  0  0  0  0  0  0  0  0  0  0
   24.9784    3.6223   62.7682 O   0  0  0  0  0  0  0  0  0  0  0  0
   25.1906    5.8701   61.8637 C   0  0  0  0  0  0  0  0  0  0  0  0
   31.1642    7.7598   66.6431 C   0  0  0  0  0  0  0  0  0  0  0  0
   30.3519    8.0627   64.3214 C   0  0  0  0  0  0  0  0  0  0  0  0
   23.8186    6.1968   61.7058 C   0  0  0  0  0  0  0  0  0  0  0  0
   26.1677    6.6032   61.0774 C   0  0  0  0  0  0  0  0  0  0  0  0
   31.7908    9.0345   66.5840 C   0  0  0  0  0  0  0  0  0  0  0  0
   30.9806    9.3345   64.2655 C   0  0  0  0  0  0  0  0  0  0  0  0
   23.4638    7.2086   60.8179 N   0  0  0  0  0  0  0  0  0  0  0  0
   25.7680    7.6255   60.1857 C   0  0  0  0  0  0  0  0  0  0  0  0
   31.7072    9.8377   65.3909 C   0  0  0  0  0  0  0  0  0  0  0  0
   24.3881    7.9191   60.0677 C   0  0  0  0  0  0  0  0  0  0  0  0
   32.3797   11.1732   65.3440 C   0  0  0  0  0  0  0  0  0  0  0  0
   33.0540   11.6013   66.4346 O   0  0  0  0  0  0  0  0  0  0  0  0
   32.3381   11.9331   64.2875 N   0  0  0  0  0  0  0  0  0  0  0  0
  1  2  1  0
  1  3  1  0
  2  4  2  0
  2  5  1  0
  3  6  2  0
  3  7  1  0
  5  8  1  0
  6  9  1  0
  7 10  2  0
  7 11  1  0
  8 12  2  0
  8 13  1  0
 11 14  2  0
 11 15  1  0
 12 16  1  0
 13 17  2  0
 14 18  1  0
 15 19  2  0
 16 20  2  0
 18 21  2  0
 20 22  1  0
 22 23  2  0
 22 24  1  0
  4  6  1  0
 17 20  1  0
 19 21  1  0
M  END
>  <Molecule Name>  (134) 
LWEUMOYBSFDLPX-VFSNKAIFNA-N

>  <hs_clash>  (134) 
1.0

>  <hs_total>  (134) 
106.55147694200758

>  <Total Molweight>  (134) 
339.378

>  <cLogP>  (134) 
1.788

>  <H-Acceptors>  (134) 
7

>  <H-Donors>  (134) 
3

>  <Polar Surface Area>  (134) 
152.23

>  <Non-H Atoms>  (134) 
24

>  <sp3-Atoms>  (134) 
0

$$$$
AHPKUZJCNHGFQA-UHFFFAOYNA-N
     RDKit          3D

 28 31  0  0  0  0  0  0  0  0999 V2000
   26.5271    7.1710   59.8571 Cl  0  0  0  0  0  0  0  0  0  0  0  0
   26.4134    8.7041   60.5775 C   0  0  0  0  0  0  0  0  0  0  0  0
   26.0392    9.8171   59.8172 C   0  0  0  0  0  0  0  0  0  0  0  0
   26.6881    8.8613   61.9496 C   0  0  0  0  0  0  0  0  0  0  0  0
   25.6944    9.7383   58.1265 Cl  0  0  0  0  0  0  0  0  0  0  0  0
   25.9480   11.0653   60.4204 C   0  0  0  0  0  0  0  0  0  0  0  0
   27.1039    7.7106   62.7833 C   0  0  0  0  0  0  0  0  0  0  0  0
   26.5968   10.1176   62.5489 C   0  0  0  0  0  0  0  0  0  0  0  0
   26.2156   11.2145   61.7756 C   0  0  0  0  0  0  0  0  0  0  0  0
   26.3188    6.7104   62.9146 N   0  0  0  0  0  0  0  0  0  0  0  0
   28.4670    7.8147   63.3699 C   0  0  0  0  0  0  0  0  0  0  0  0
   26.7717    5.6636   63.6583 C   0  0  0  0  0  0  0  0  0  0  0  0
   28.8940    6.7538   64.1137 C   0  0  0  0  0  0  0  0  0  0  0  0
   28.0276    5.6661   64.2740 N   0  0  0  0  0  0  0  0  0  0  0  0
   26.1901    4.4669   63.9875 C   0  0  0  0  0  0  0  0  0  0  0  0
   30.1278    6.6625   64.7354 N   0  0  0  0  0  0  0  0  0  0  0  0
   28.2633    4.4966   64.9778 N   0  0  0  0  0  0  0  0  0  0  0  0
   24.6096    3.8734   63.5251 S   0  0  0  0  0  0  0  0  0  0  0  0
   27.1418    3.7791   64.7951 C   0  0  0  0  0  0  0  0  0  0  0  0
   31.2900    7.4741   64.4843 C   0  0  0  0  0  0  0  0  0  0  0  0
   23.9293    5.2821   62.8127 C   0  0  0  0  0  0  0  0  0  0  0  0
   31.3134    8.5960   65.4748 C   0  0  0  0  0  0  0  0  0  0  0  0
   23.4960    6.2831   62.3114 N   0  0  0  0  0  0  0  0  0  0  0  0
   31.4002    8.3406   66.8398 C   0  0  0  0  0  0  0  0  0  0  0  0
   31.2519    9.9292   65.0432 C   0  0  0  0  0  0  0  0  0  0  0  0
   31.4165    9.4155   67.7012 C   0  0  0  0  0  0  0  0  0  0  0  0
   31.2731   10.9451   65.9966 C   0  0  0  0  0  0  0  0  0  0  0  0
   31.3580   10.7208   67.3106 N   0  0  0  0  0  0  0  0  0  0  0  0
  1  2  1  0
  2  3  2  0
  2  4  1  0
  3  5  1  0
  3  6  1  0
  4  7  1  0
  4  8  2  0
  6  9  2  0
  7 10  2  0
  7 11  1  0
 10 12  1  0
 11 13  2  0
 12 14  1  0
 12 15  2  0
 13 16  1  0
 14 17  1  0
 15 18  1  0
 15 19  1  0
 16 20  1  0
 18 21  1  0
 20 22  1  0
 21 23  3  0
 22 24  2  0
 22 25  1  0
 24 26  1  0
 25 27  2  0
 26 28  2  0
  8  9  1  0
 13 14  1  0
 17 19  2  0
 27 28  1  0
M  END
>  <Molecule Name>  (135) 
AHPKUZJCNHGFQA-UHFFFAOYNA-N

>  <hs_clash>  (135) 
0.0

>  <hs_total>  (135) 
106.44659907550684

>  <Total Molweight>  (135) 
427.318

>  <cLogP>  (135) 
3.1483

>  <H-Acceptors>  (135) 
6

>  <H-Donors>  (135) 
1

>  <Polar Surface Area>  (135) 
104.2

>  <Non-H Atoms>  (135) 
28

>  <sp3-Atoms>  (135) 
2

$$$$
RFSDQDHHBKYQOD-PXPUHDKANA-N
     RDKit          3D

 25 28  0  0  0  0  0  0  0  0999 V2000
   25.3372    7.2071   63.3012 O   0  0  0  0  0  0  0  0  0  0  0  0
   26.1323    6.2901   63.9343 C   0  0  0  0  0  0  0  0  0  0  0  0
   25.5870    8.5982   63.4834 C   0  0  0  0  0  0  0  0  0  0  0  0
   27.2769    6.6429   64.5543 N   0  0  0  0  0  0  0  0  0  0  0  0
   25.7406    4.8795   63.9875 C   0  0  0  0  0  0  0  0  0  0  0  0
   25.0943    9.3628   62.2609 C   0  0  0  0  0  0  0  0  0  0  0  0
   28.0729    5.7545   65.2026 C   0  0  0  0  0  0  0  0  0  0  0  0
   24.6791    4.1646   63.5052 N   0  0  0  0  0  0  0  0  0  0  0  0
   26.6161    3.9917   64.6955 C   0  0  0  0  0  0  0  0  0  0  0  0
   25.6002   10.8084   62.3408 C   0  0  0  0  0  0  0  0  0  0  0  0
   25.5388    8.7030   60.9525 C   0  0  0  0  0  0  0  0  0  0  0  0
   27.7546    4.4328   65.2750 N   0  0  0  0  0  0  0  0  0  0  0  0
   29.2089    6.1898   65.8090 N   0  0  0  0  0  0  0  0  0  0  0  0
   24.9570    2.8643   63.9285 C   0  0  0  0  0  0  0  0  0  0  0  0
   26.1254    2.6879   64.6727 N   0  0  0  0  0  0  0  0  0  0  0  0
   25.2182   11.6482   61.1100 C   0  0  0  0  0  0  0  0  0  0  0  0
   24.9463    9.4832   59.7828 C   0  0  0  0  0  0  0  0  0  0  0  0
   29.8790    7.3348   65.5328 C   0  0  0  0  0  0  0  0  0  0  0  0
   25.4553   10.9291   59.7776 C   0  0  0  0  0  0  0  0  0  0  0  0
   29.7212    7.9601   64.3032 C   0  0  0  0  0  0  0  0  0  0  0  0
   30.7470    7.8730   66.4919 C   0  0  0  0  0  0  0  0  0  0  0  0
   30.4224    9.1117   64.0330 C   0  0  0  0  0  0  0  0  0  0  0  0
   31.4458    9.0548   66.2207 C   0  0  0  0  0  0  0  0  0  0  0  0
   31.2804    9.6555   64.9781 C   0  0  0  0  0  0  0  0  0  0  0  0
   31.9117   10.7778   64.6678 O   0  0  0  0  0  0  0  0  0  0  0  0
  1  2  1  0
  1  3  1  0
  2  4  2  0
  2  5  1  0
  3  6  1  0
  4  7  1  0
  5  8  1  0
  5  9  2  0
  6 10  1  0
  6 11  1  0
  7 12  2  0
  7 13  1  0
  8 14  1  0
  9 15  1  0
 10 16  1  0
 11 17  1  0
 13 18  1  0
 16 19  1  0
 18 20  2  0
 18 21  1  0
 20 22  1  0
 21 23  2  0
 22 24  2  0
 24 25  1  0
  9 12  1  0
 14 15  2  0
 17 19  1  0
 23 24  1  0
M  END
>  <Molecule Name>  (136) 
RFSDQDHHBKYQOD-PXPUHDKANA-N

>  <hs_clash>  (136) 
0.0

>  <hs_total>  (136) 
106.20118263825076

>  <Total Molweight>  (136) 
339.398

>  <cLogP>  (136) 
3.5649

>  <H-Acceptors>  (136) 
7

>  <H-Donors>  (136) 
3

>  <Polar Surface Area>  (136) 
95.95

>  <Non-H Atoms>  (136) 
25

>  <sp3-Atoms>  (136) 
9

$$$$
JLRKRQCTYQGDKJ-UDLWCGNRNA-N
     RDKit          3D

 22 24  0  0  0  0  0  0  0  0999 V2000
   24.6654    6.3669   62.3379 S   0  0  0  0  0  0  0  0  0  0  0  0
   23.5719    6.5810   61.0896 C   0  0  0  0  0  0  0  0  0  0  0  0
   24.1303    4.7805   62.6104 C   0  0  0  0  0  0  0  0  0  0  0  0
   23.4564    7.7145   60.3844 N   0  0  0  0  0  0  0  0  0  0  0  0
   22.8195    5.4706   60.8726 N   0  0  0  0  0  0  0  0  0  0  0  0
   23.1314    4.4342   61.7115 C   0  0  0  0  0  0  0  0  0  0  0  0
   24.6333    3.9711   63.5255 C   0  0  0  0  0  0  0  0  0  0  0  0
   22.5974    3.3305   61.6627 O   0  0  0  0  0  0  0  0  0  0  0  0
   25.8623    4.3814   64.2402 C   0  0  0  0  0  0  0  0  0  0  0  0
   26.4808    5.5553   64.0829 O   0  0  0  0  0  0  0  0  0  0  0  0
   26.5650    3.6657   65.1249 C   0  0  0  0  0  0  0  0  0  0  0  0
   27.5511    5.5918   64.8668 C   0  0  0  0  0  0  0  0  0  0  0  0
   27.6192    4.4280   65.5244 C   0  0  0  0  0  0  0  0  0  0  0  0
   28.4892    6.7237   64.9370 C   0  0  0  0  0  0  0  0  0  0  0  0
   29.5438    6.7375   65.8515 C   0  0  0  0  0  0  0  0  0  0  0  0
   28.3215    7.7827   64.0467 C   0  0  0  0  0  0  0  0  0  0  0  0
   30.4093    7.8447   65.8880 C   0  0  0  0  0  0  0  0  0  0  0  0
   29.1930    8.8548   64.0557 C   0  0  0  0  0  0  0  0  0  0  0  0
   30.2298    8.9033   64.9720 C   0  0  0  0  0  0  0  0  0  0  0  0
   31.1540   10.0890   64.9765 C   0  0  0  0  0  0  0  0  0  0  0  0
   32.0690   10.1610   65.8014 O   0  0  0  0  0  0  0  0  0  0  0  0
   30.9864   11.0316   64.1240 O   0  0  0  0  0  0  0  0  0  0  0  0
  1  2  1  0
  1  3  1  0
  2  4  2  0
  2  5  1  0
  3  6  1  0
  3  7  2  0
  6  8  2  0
  7  9  1  0
  9 10  1  0
  9 11  2  0
 10 12  1  0
 11 13  1  0
 12 14  1  0
 14 15  2  0
 14 16  1  0
 15 17  1  0
 16 18  2  0
 17 19  2  0
 19 20  1  0
 20 21  2  0
 20 22  1  0
  5  6  1  0
 12 13  2  0
 18 19  1  0
M  CHG  2   4   1  22  -1
M  END
>  <Molecule Name>  (137) 
JLRKRQCTYQGDKJ-UDLWCGNRNA-N

>  <hs_clash>  (137) 
0.0

>  <hs_total>  (137) 
106.16146789292716

>  <Total Molweight>  (137) 
314.320

>  <cLogP>  (137) 
0.0208

>  <H-Acceptors>  (137) 
6

>  <H-Donors>  (137) 
2

>  <Polar Surface Area>  (137) 
133.26

>  <Non-H Atoms>  (137) 
22

>  <sp3-Atoms>  (137) 
2

$$$$
BKUMVXIXUVYKDQ-NOAZDQGSNA-O
     RDKit          3D

 23 25  0  0  0  0  0  0  0  0999 V2000
   31.7221   10.7684   64.6991 S   0  0  0  0  0  0  0  0  0  0  0  0
   32.7511   10.5854   63.6171 O   0  0  0  0  0  0  0  0  0  0  0  0
   32.4149   10.8745   66.0347 O   0  0  0  0  0  0  0  0  0  0  0  0
   30.8680   12.1372   64.4126 N   0  0  0  0  0  0  0  0  0  0  0  0
   30.6260    9.3870   64.7169 C   0  0  0  0  0  0  0  0  0  0  0  0
   30.8456    8.3227   65.6015 C   0  0  0  0  0  0  0  0  0  0  0  0
   29.5327    9.3608   63.8533 C   0  0  0  0  0  0  0  0  0  0  0  0
   29.9752    7.2280   65.6046 C   0  0  0  0  0  0  0  0  0  0  0  0
   28.6650    8.2785   63.8648 C   0  0  0  0  0  0  0  0  0  0  0  0
   28.8865    7.2082   64.7351 C   0  0  0  0  0  0  0  0  0  0  0  0
   28.0103    6.1389   64.7255 C   0  0  0  0  0  0  0  0  0  0  0  0
   26.8197    6.1284   64.1158 O   0  0  0  0  0  0  0  0  0  0  0  0
   28.1974    4.9364   65.2844 C   0  0  0  0  0  0  0  0  0  0  0  0
   26.2593    4.9300   64.3047 C   0  0  0  0  0  0  0  0  0  0  0  0
   27.1106    4.1867   65.0258 C   0  0  0  0  0  0  0  0  0  0  0  0
   24.9403    4.5144   63.7877 C   0  0  0  0  0  0  0  0  0  0  0  0
   24.3813    5.1936   62.7473 C   0  0  0  0  0  0  0  0  0  0  0  0
   24.7070    6.8031   62.3658 S   0  0  0  0  0  0  0  0  0  0  0  0
   23.4660    4.6417   61.8463 C   0  0  0  0  0  0  0  0  0  0  0  0
   23.6525    6.7607   61.0433 C   0  0  0  0  0  0  0  0  0  0  0  0
   23.0598    3.4823   61.9013 O   0  0  0  0  0  0  0  0  0  0  0  0
   23.0701    5.5505   60.8937 N   0  0  0  0  0  0  0  0  0  0  0  0
   23.4209    7.7939   60.2463 N   0  0  0  0  0  0  0  0  0  0  0  0
  1  2  2  0
  1  3  2  0
  1  4  1  0
  1  5  1  0
  5  6  2  0
  5  7  1  0
  6  8  1  0
  7  9  2  0
  8 10  2  0
 10 11  1  0
 11 12  1  0
 11 13  2  0
 12 14  1  0
 13 15  1  0
 14 16  1  0
 16 17  2  0
 17 18  1  0
 17 19  1  0
 18 20  1  0
 19 21  2  0
 19 22  1  0
 20 23  2  0
  9 10  1  0
 14 15  2  0
 20 22  1  0
M  CHG  1  23   1
M  END
>  <Molecule Name>  (138) 
BKUMVXIXUVYKDQ-NOAZDQGSNA-O

>  <hs_clash>  (138) 
0.0

>  <hs_total>  (138) 
105.83458094468374

>  <Total Molweight>  (138) 
350.398

>  <cLogP>  (138) 
1.3757

>  <H-Acceptors>  (138) 
7

>  <H-Donors>  (138) 
3

>  <Polar Surface Area>  (138) 
161.67

>  <Non-H Atoms>  (138) 
23

>  <sp3-Atoms>  (138) 
2

$$$$
YOJFGNJSVVXBNX-FWDIHKGJNA-O
     RDKit          3D

 28 30  0  0  0  0  0  0  0  0999 V2000
   24.0490    7.2617   63.3698 O   0  0  0  0  0  0  0  0  0  0  0  0
   25.1367    7.8290   62.8919 N   0  0  0  0  0  0  0  0  0  0  0  0
   25.0053    8.6243   61.8650 O   0  0  0  0  0  0  0  0  0  0  0  0
   26.3040    7.5319   63.3852 C   0  0  0  0  0  0  0  0  0  0  0  0
   27.4751    8.4221   63.3388 C   0  0  0  0  0  0  0  0  0  0  0  0
   26.4464    6.2521   64.0155 C   0  0  0  0  0  0  0  0  0  0  0  0
   27.4729    9.6455   62.8165 N   0  0  0  0  0  0  0  0  0  0  0  0
   28.7034    7.9518   63.9094 C   0  0  0  0  0  0  0  0  0  0  0  0
   27.6779    5.8018   64.5883 C   0  0  0  0  0  0  0  0  0  0  0  0
   26.4574   10.6426   63.3309 C   0  0  0  0  0  0  0  0  0  0  0  0
   28.5730   10.0954   61.8975 C   0  0  0  0  0  0  0  0  0  0  0  0
   28.8346    6.6563   64.5296 C   0  0  0  0  0  0  0  0  0  0  0  0
   27.7139    4.5387   65.1851 C   0  0  0  0  0  0  0  0  0  0  0  0
   26.1192   11.7540   62.3269 C   0  0  0  0  0  0  0  0  0  0  0  0
   28.1761   11.2562   60.9738 C   0  0  0  0  0  0  0  0  0  0  0  0
   29.9797    6.2493   65.0479 N   0  0  0  0  0  0  0  0  0  0  0  0
   28.4890    4.2818   66.0994 O   0  0  0  0  0  0  0  0  0  0  0  0
   26.8506    3.5551   64.7640 N   0  0  0  0  0  0  0  0  0  0  0  0
   27.3971   12.3368   61.7300 C   0  0  0  0  0  0  0  0  0  0  0  0
   31.3202    6.8970   64.8014 C   0  0  0  0  0  0  0  0  0  0  0  0
   27.0409   13.3951   60.7986 N   0  0  0  0  0  0  0  0  0  0  0  0
   31.5159    8.0694   65.7442 C   0  0  0  0  0  0  0  0  0  0  0  0
   31.8339    9.3539   65.2811 C   0  0  0  0  0  0  0  0  0  0  0  0
   31.3806    7.9568   67.1320 C   0  0  0  0  0  0  0  0  0  0  0  0
   32.0053   10.4434   66.1013 N   0  0  0  0  0  0  0  0  0  0  0  0
   31.5395    9.0093   67.9998 N   0  0  0  0  0  0  0  0  0  0  0  0
   31.8461   10.2153   67.4372 C   0  0  0  0  0  0  0  0  0  0  0  0
   31.9944   11.2071   68.2216 N   0  0  0  0  0  0  0  0  0  0  0  0
  1  2  2  0
  2  3  1  0
  2  4  1  0
  4  5  2  0
  4  6  1  0
  5  7  1  0
  5  8  1  0
  6  9  2  0
  7 10  1  0
  7 11  1  0
  8 12  2  0
  9 13  1  0
 10 14  1  0
 11 15  1  0
 12 16  1  0
 13 17  2  0
 13 18  1  0
 14 19  1  0
 16 20  1  0
 19 21  1  0
 20 22  1  0
 22 23  2  0
 22 24  1  0
 23 25  1  0
 24 26  2  0
 25 27  2  0
 27 28  1  0
  9 12  1  0
 15 19  1  0
 26 27  1  0
M  CHG  3   2   1   3  -1  21   1
M  END
>  <Molecule Name>  (139) 
YOJFGNJSVVXBNX-FWDIHKGJNA-O

>  <hs_clash>  (139) 
0.0

>  <hs_total>  (139) 
105.38846465520837

>  <Total Molweight>  (139) 
387.423

>  <cLogP>  (139) 
-0.9248

>  <H-Acceptors>  (139) 
11

>  <H-Donors>  (139) 
4

>  <Polar Surface Area>  (139) 
183.62

>  <Non-H Atoms>  (139) 
28

>  <sp3-Atoms>  (139) 
9

$$$$
NQVIIUBWMBHLOZ-PKSOQXRJNA-N
     RDKit          3D

 29 31  0  0  0  0  0  0  0  0999 V2000
   31.4274   11.5835   68.7998 O   0  0  0  0  0  0  0  0  0  0  0  0
   31.4101   10.5623   67.8816 C   0  0  0  0  0  0  0  0  0  0  0  0
   32.2980   11.5162   69.9382 C   0  0  0  0  0  0  0  0  0  0  0  0
   31.6657    9.2136   68.2284 C   0  0  0  0  0  0  0  0  0  0  0  0
   31.1286   10.8699   66.5611 C   0  0  0  0  0  0  0  0  0  0  0  0
   31.6097    8.2433   67.2476 C   0  0  0  0  0  0  0  0  0  0  0  0
   31.0628    9.8668   65.6028 C   0  0  0  0  0  0  0  0  0  0  0  0
   31.3234    8.5430   65.9311 C   0  0  0  0  0  0  0  0  0  0  0  0
   31.2874    7.4421   64.8931 C   0  0  0  0  0  0  0  0  0  0  0  0
   30.2286    6.4252   65.1288 N   0  0  0  0  0  0  0  0  0  0  0  0
   29.0579    6.5076   64.5805 C   0  0  0  0  0  0  0  0  0  0  0  0
   28.7296    7.6113   63.8625 N   0  0  0  0  0  0  0  0  0  0  0  0
   28.1584    5.4526   64.6947 C   0  0  0  0  0  0  0  0  0  0  0  0
   27.5308    7.6526   63.2337 C   0  0  0  0  0  0  0  0  0  0  0  0
   28.2281    4.2266   65.2808 N   0  0  0  0  0  0  0  0  0  0  0  0
   26.9752    5.5391   64.0042 C   0  0  0  0  0  0  0  0  0  0  0  0
   26.6318    6.6466   63.2794 N   0  0  0  0  0  0  0  0  0  0  0  0
   27.1564    8.7920   62.5127 N   0  0  0  0  0  0  0  0  0  0  0  0
   27.0680    3.6252   64.9816 C   0  0  0  0  0  0  0  0  0  0  0  0
   26.3105    4.4402   64.2398 N   0  0  0  0  0  0  0  0  0  0  0  0
   27.9028   10.0149   62.6962 C   0  0  0  0  0  0  0  0  0  0  0  0
   25.9475    8.7816   61.6835 C   0  0  0  0  0  0  0  0  0  0  0  0
   25.0083    4.0370   63.6746 C   0  0  0  0  0  0  0  0  0  0  0  0
   28.8470   10.0451   61.5246 C   0  0  0  0  0  0  0  0  0  0  0  0
   26.1250    7.8948   60.4604 C   0  0  0  0  0  0  0  0  0  0  0  0
   25.0846    3.7084   62.1846 C   0  0  0  0  0  0  0  0  0  0  0  0
   23.9105    5.0510   63.8984 C   0  0  0  0  0  0  0  0  0  0  0  0
   29.8834   10.7609   62.1583 O   0  0  0  0  0  0  0  0  0  0  0  0
   24.9190    7.9970   59.6749 O   0  0  0  0  0  0  0  0  0  0  0  0
  1  2  1  0
  1  3  1  0
  2  4  2  0
  2  5  1  0
  4  6  1  0
  5  7  2  0
  6  8  2  0
  8  9  1  0
  9 10  1  0
 10 11  1  0
 11 12  2  0
 11 13  1  0
 12 14  1  0
 13 15  1  0
 13 16  2  0
 14 17  2  0
 14 18  1  0
 15 19  2  0
 16 20  1  0
 18 21  1  0
 18 22  1  0
 20 23  1  0
 21 24  1  0
 22 25  1  0
 23 26  1  0
 23 27  1  0
 24 28  1  0
 25 29  1  0
  7  8  1  0
 16 17  1  0
 19 20  1  0
M  END
>  <Molecule Name>  (140) 
NQVIIUBWMBHLOZ-PKSOQXRJNA-N

>  <hs_clash>  (140) 
0.0

>  <hs_total>  (140) 
105.06394995978852

>  <Total Molweight>  (140) 
400.481

>  <cLogP>  (140) 
1.4267

>  <H-Acceptors>  (140) 
9

>  <H-Donors>  (140) 
3

>  <Polar Surface Area>  (140) 
108.56

>  <Non-H Atoms>  (140) 
29

>  <sp3-Atoms>  (140) 
12

$$$$
XONAFDRMWJEXGF-QQIASPBONA-O
     RDKit          3D

 34 39  0  0  0  0  0  0  0  0999 V2000
   22.2209    5.5231   61.3087 O   0  0  0  0  0  0  0  0  0  0  0  0
   22.5397    4.2592   60.8570 C   0  0  0  0  0  0  0  0  0  0  0  0
   20.9306    5.7711   60.7729 C   0  0  0  0  0  0  0  0  0  0  0  0
   23.6982    3.6440   61.2761 C   0  0  0  0  0  0  0  0  0  0  0  0
   21.6788    3.6297   59.9819 C   0  0  0  0  0  0  0  0  0  0  0  0
   24.6854    4.2226   62.1594 C   0  0  0  0  0  0  0  0  0  0  0  0
   23.9644    2.3806   60.7828 C   0  0  0  0  0  0  0  0  0  0  0  0
   21.9561    2.3706   59.5043 C   0  0  0  0  0  0  0  0  0  0  0  0
   25.2573    3.3941   63.0953 C   0  0  0  0  0  0  0  0  0  0  0  0
   25.1200    5.5251   62.0278 C   0  0  0  0  0  0  0  0  0  0  0  0
   23.1105    1.7432   59.9158 C   0  0  0  0  0  0  0  0  0  0  0  0
   21.0702    1.7501   58.6163 N   0  0  0  0  0  0  0  0  0  0  0  0
   26.2552    3.9471   63.8562 C   0  0  0  0  0  0  0  0  0  0  0  0
   26.1408    6.0697   62.7826 C   0  0  0  0  0  0  0  0  0  0  0  0
   27.0110    3.3778   64.8349 N   0  0  0  0  0  0  0  0  0  0  0  0
   26.7226    5.2361   63.7235 C   0  0  0  0  0  0  0  0  0  0  0  0
   27.9355    4.1895   65.3647 N   0  0  0  0  0  0  0  0  0  0  0  0
   27.7598    5.3271   64.6899 C   0  0  0  0  0  0  0  0  0  0  0  0
   28.6392    6.4797   64.9526 C   0  0  0  0  0  0  0  0  0  0  0  0
   28.6364    7.6066   64.2785 N   0  0  0  0  0  0  0  0  0  0  0  0
   29.5937    6.4934   65.9252 N   0  0  0  0  0  0  0  0  0  0  0  0
   29.6218    8.3767   64.8447 C   0  0  0  0  0  0  0  0  0  0  0  0
   30.2341    7.6945   65.8771 C   0  0  0  0  0  0  0  0  0  0  0  0
   30.0291    9.6579   64.5019 C   0  0  0  0  0  0  0  0  0  0  0  0
   31.2614    8.1984   66.6426 C   0  0  0  0  0  0  0  0  0  0  0  0
   29.4334   10.3965   63.4612 N   0  0  0  0  0  0  0  0  0  0  0  0
   31.0538   10.1697   65.2721 C   0  0  0  0  0  0  0  0  0  0  0  0
   31.6509    9.4727   66.2970 C   0  0  0  0  0  0  0  0  0  0  0  0
   29.5187    9.7373   62.1754 C   0  0  0  0  0  0  0  0  0  0  0  0
   29.7954   11.8101   63.4840 C   0  0  0  0  0  0  0  0  0  0  0  0
   28.5779   10.4828   61.2547 C   0  0  0  0  0  0  0  0  0  0  0  0
   30.1015   12.3486   62.0966 C   0  0  0  0  0  0  0  0  0  0  0  0
   29.1663   11.8323   61.0508 N   0  0  0  0  0  0  0  0  0  0  0  0
   28.1840   12.8352   60.5901 C   0  0  0  0  0  0  0  0  0  0  0  0
  1  2  1  0
  1  3  1  0
  2  4  2  0
  2  5  1  0
  4  6  1  0
  4  7  1  0
  5  8  2  0
  6  9  2  0
  6 10  1  0
  7 11  2  0
  8 12  1  0
  9 13  1  0
 10 14  2  0
 13 15  1  0
 13 16  2  0
 15 17  1  0
 16 18  1  0
 18 19  1  0
 19 20  2  0
 19 21  1  0
 20 22  1  0
 21 23  1  0
 22 24  2  0
 23 25  2  0
 24 26  1  0
 24 27  1  0
 25 28  1  0
 26 29  1  0
 26 30  1  0
 29 31  1  0
 30 32  1  0
 31 33  1  0
 33 34  1  0
  8 11  1  0
 14 16  1  0
 17 18  2  0
 22 23  1  0
 27 28  2  0
 32 33  1  0
M  CHG  1  33   1
M  END
>  <Molecule Name>  (141) 
XONAFDRMWJEXGF-QQIASPBONA-O

>  <hs_clash>  (141) 
0.0

>  <hs_total>  (141) 
104.91597050409949

>  <Total Molweight>  (141) 
454.556

>  <cLogP>  (141) 
0.7843

>  <H-Acceptors>  (141) 
8

>  <H-Donors>  (141) 
4

>  <Polar Surface Area>  (141) 
100.29

>  <Non-H Atoms>  (141) 
34

>  <sp3-Atoms>  (141) 
9

$$$$
XNHSEOXNPOIZSH-FGEGVHGVNA-N
     RDKit          3D

 28 31  0  0  0  0  0  0  0  0999 V2000
   31.6387   11.7393   64.7152 S   0  0  0  0  0  0  0  0  0  0  0  0
   31.3774   12.8701   65.7072 O   0  0  0  0  0  0  0  0  0  0  0  0
   33.0983   11.8030   64.2909 O   0  0  0  0  0  0  0  0  0  0  0  0
   30.8066   11.9196   63.5390 N   0  0  0  0  0  0  0  0  0  0  0  0
   31.3248   10.2585   65.4996 C   0  0  0  0  0  0  0  0  0  0  0  0
   30.2924    9.3984   65.1394 C   0  0  0  0  0  0  0  0  0  0  0  0
   32.1617    9.9478   66.5562 C   0  0  0  0  0  0  0  0  0  0  0  0
   30.1282    8.2175   65.8496 C   0  0  0  0  0  0  0  0  0  0  0  0
   31.9931    8.7816   67.2641 C   0  0  0  0  0  0  0  0  0  0  0  0
   29.1676    7.3566   65.5523 C   0  0  0  0  0  0  0  0  0  0  0  0
   30.9805    7.9218   66.9052 C   0  0  0  0  0  0  0  0  0  0  0  0
   28.1562    7.5786   64.7422 N   0  0  0  0  0  0  0  0  0  0  0  0
   29.0842    6.1338   66.0387 N   0  0  0  0  0  0  0  0  0  0  0  0
   27.4459    6.4640   64.7403 C   0  0  0  0  0  0  0  0  0  0  0  0
   28.0066    5.5829   65.5300 C   0  0  0  0  0  0  0  0  0  0  0  0
   26.3449    6.1434   64.1109 C   0  0  0  0  0  0  0  0  0  0  0  0
   27.4518    4.3806   65.6790 N   0  0  0  0  0  0  0  0  0  0  0  0
   25.9018    7.1373   63.3537 O   0  0  0  0  0  0  0  0  0  0  0  0
   25.7545    4.9569   64.2277 N   0  0  0  0  0  0  0  0  0  0  0  0
   26.3277    4.0685   65.0302 C   0  0  0  0  0  0  0  0  0  0  0  0
   24.6663    6.9652   62.7236 C   0  0  0  0  0  0  0  0  0  0  0  0
   25.7890    2.8781   65.1764 N   0  0  0  0  0  0  0  0  0  0  0  0
   24.6074    8.2590   62.0102 C   0  0  0  0  0  0  0  0  0  0  0  0
   25.5980    8.1998   60.8401 C   0  0  0  0  0  0  0  0  0  0  0  0
   23.2193    8.4438   61.5238 C   0  0  0  0  0  0  0  0  0  0  0  0
   25.6041    9.4823   60.1469 C   0  0  0  0  0  0  0  0  0  0  0  0
   23.1726    9.7220   60.7297 C   0  0  0  0  0  0  0  0  0  0  0  0
   24.1972    9.6517   59.5829 C   0  0  0  0  0  0  0  0  0  0  0  0
  1  2  2  0
  1  3  2  0
  1  4  1  0
  1  5  1  0
  5  6  2  0
  5  7  1  0
  6  8  1  0
  7  9  2  0
  8 10  1  0
  8 11  2  0
 10 12  2  0
 10 13  1  0
 12 14  1  0
 13 15  1  0
 14 16  2  0
 15 17  2  0
 16 18  1  0
 16 19  1  0
 17 20  1  0
 18 21  1  0
 20 22  1  0
 21 23  1  0
 23 24  1  0
 23 25  1  0
 24 26  1  0
 25 27  1  0
 26 28  1  0
  9 11  1  0
 14 15  1  0
 19 20  2  0
 27 28  1  0
M  END
>  <Molecule Name>  (142) 
XNHSEOXNPOIZSH-FGEGVHGVNA-N

>  <hs_clash>  (142) 
0.0

>  <hs_total>  (142) 
103.19853740363197

>  <Total Molweight>  (142) 
402.478

>  <cLogP>  (142) 
2.1099

>  <H-Acceptors>  (142) 
9

>  <H-Donors>  (142) 
3

>  <Polar Surface Area>  (142) 
158.25

>  <Non-H Atoms>  (142) 
28

>  <sp3-Atoms>  (142) 
9

$$$$
MYHBMTAGTIOCHM-UYBDAZJANA-N
     RDKit          3D

 26 28  0  0  0  0  0  0  0  0999 V2000
   27.1351    7.6505   62.0754 S   0  0  0  0  0  0  0  0  0  0  0  0
   26.3929    6.1524   62.5735 C   0  0  0  0  0  0  0  0  0  0  0  0
   25.8068    7.9510   60.9946 C   0  0  0  0  0  0  0  0  0  0  0  0
   27.1887    5.2945   63.4710 C   0  0  0  0  0  0  0  0  0  0  0  0
   25.1637    6.0123   61.8994 C   0  0  0  0  0  0  0  0  0  0  0  0
   24.8794    7.0363   61.0114 N   0  0  0  0  0  0  0  0  0  0  0  0
   25.7561    9.1652   60.1234 C   0  0  0  0  0  0  0  0  0  0  0  0
   28.2209    5.9347   64.0418 N   0  0  0  0  0  0  0  0  0  0  0  0
   26.8967    3.9609   63.7319 C   0  0  0  0  0  0  0  0  0  0  0  0
   24.1408    4.9449   62.1006 C   0  0  0  0  0  0  0  0  0  0  0  0
   28.9953    5.2245   64.8875 C   0  0  0  0  0  0  0  0  0  0  0  0
   27.7608    3.3365   64.6164 C   0  0  0  0  0  0  0  0  0  0  0  0
   28.8033    3.9396   65.2161 N   0  0  0  0  0  0  0  0  0  0  0  0
   30.0358    5.8643   65.4761 N   0  0  0  0  0  0  0  0  0  0  0  0
   30.5985    7.1525   65.3280 C   0  0  0  0  0  0  0  0  0  0  0  0
   31.5278    7.6086   66.2590 C   0  0  0  0  0  0  0  0  0  0  0  0
   30.2210    7.9764   64.2766 C   0  0  0  0  0  0  0  0  0  0  0  0
   32.1108    8.8587   66.1437 C   0  0  0  0  0  0  0  0  0  0  0  0
   30.7568    9.2434   64.1502 C   0  0  0  0  0  0  0  0  0  0  0  0
   33.0751    9.2141   67.2011 N   0  0  0  0  0  0  0  0  0  0  0  0
   31.6870    9.7417   65.0460 C   0  0  0  0  0  0  0  0  0  0  0  0
   33.7324   10.2307   67.0741 O   0  0  0  0  0  0  0  0  0  0  0  0
   33.0597    8.5689   68.2389 O   0  0  0  0  0  0  0  0  0  0  0  0
   32.1031   11.1502   64.8182 N   0  0  0  0  0  0  0  0  0  0  0  0
   33.5314   11.2851   64.4092 C   0  0  0  0  0  0  0  0  0  0  0  0
   31.7506   12.0656   65.9447 C   0  0  0  0  0  0  0  0  0  0  0  0
  1  2  1  0
  1  3  1  0
  2  4  1  0
  2  5  2  0
  3  6  2  0
  3  7  1  0
  4  8  2  0
  4  9  1  0
  5 10  1  0
  8 11  1  0
  9 12  2  0
 11 13  2  0
 11 14  1  0
 14 15  1  0
 15 16  2  0
 15 17  1  0
 16 18  1  0
 17 19  2  0
 18 20  1  0
 18 21  2  0
 20 22  2  0
 20 23  1  0
 21 24  1  0
 24 25  1  0
 24 26  1  0
  5  6  1  0
 12 13  1  0
 19 21  1  0
M  CHG  2  20   1  23  -1
M  END
>  <Molecule Name>  (143) 
MYHBMTAGTIOCHM-UYBDAZJANA-N

>  <hs_clash>  (143) 
0.0

>  <hs_total>  (143) 
102.91922236385052

>  <Total Molweight>  (143) 
370.436

>  <cLogP>  (143) 
2.5323

>  <H-Acceptors>  (143) 
8

>  <H-Donors>  (143) 
1

>  <Polar Surface Area>  (143) 
128

>  <Non-H Atoms>  (143) 
26

>  <sp3-Atoms>  (143) 
6

$$$$
UOLGTPNXRYIVCE-CBGLPUEENA-M
     RDKit          3D

 27 28  0  0  0  0  0  0  0  0999 V2000
   25.0150    9.0221   61.9098 O   0  0  0  0  0  0  0  0  0  0  0  0
   25.1395    7.9312   62.6155 N   0  0  0  0  0  0  0  0  0  0  0  0
   24.0585    7.1986   62.8358 O   0  0  0  0  0  0  0  0  0  0  0  0
   26.2828    7.5666   63.0870 C   0  0  0  0  0  0  0  0  0  0  0  0
   27.4548    8.4104   62.9891 C   0  0  0  0  0  0  0  0  0  0  0  0
   26.3974    6.2910   63.7249 C   0  0  0  0  0  0  0  0  0  0  0  0
   27.3978    9.5768   62.4201 N   0  0  0  0  0  0  0  0  0  0  0  0
   28.6890    7.9507   63.5283 C   0  0  0  0  0  0  0  0  0  0  0  0
   27.6394    5.8255   64.2671 C   0  0  0  0  0  0  0  0  0  0  0  0
   28.3852    9.9885   61.3995 C   0  0  0  0  0  0  0  0  0  0  0  0
   28.8093    6.6653   64.1715 C   0  0  0  0  0  0  0  0  0  0  0  0
   27.6713    4.5600   64.8666 C   0  0  0  0  0  0  0  0  0  0  0  0
   28.7455   11.4588   61.5805 C   0  0  0  0  0  0  0  0  0  0  0  0
   29.9477    6.2588   64.6582 N   0  0  0  0  0  0  0  0  0  0  0  0
   28.5023    4.2613   65.6920 O   0  0  0  0  0  0  0  0  0  0  0  0
   26.7554    3.6220   64.5133 N   0  0  0  0  0  0  0  0  0  0  0  0
   28.2197   12.2518   60.3871 C   0  0  0  0  0  0  0  0  0  0  0  0
   31.2722    6.8998   64.3991 C   0  0  0  0  0  0  0  0  0  0  0  0
   28.6741   13.6951   60.4740 C   0  0  0  0  0  0  0  0  0  0  0  0
   31.4968    8.0681   65.3451 C   0  0  0  0  0  0  0  0  0  0  0  0
   29.6795   14.0470   59.8992 O   0  0  0  0  0  0  0  0  0  0  0  0
   27.9610   14.5833   61.1814 O   0  0  0  0  0  0  0  0  0  0  0  0
   31.2641    7.9506   66.7305 C   0  0  0  0  0  0  0  0  0  0  0  0
   31.9397    9.3253   64.8555 C   0  0  0  0  0  0  0  0  0  0  0  0
   31.4488    8.9946   67.6139 N   0  0  0  0  0  0  0  0  0  0  0  0
   32.1382   10.4083   65.7363 C   0  0  0  0  0  0  0  0  0  0  0  0
   31.8799   10.1939   67.1028 C   0  0  0  0  0  0  0  0  0  0  0  0
  1  2  2  0
  2  3  1  0
  2  4  1  0
  4  5  2  0
  4  6  1  0
  5  7  1  0
  5  8  1  0
  6  9  2  0
  7 10  1  0
  8 11  2  0
  9 12  1  0
 10 13  1  0
 11 14  1  0
 12 15  2  0
 12 16  1  0
 13 17  1  0
 14 18  1  0
 17 19  1  0
 18 20  1  0
 19 21  2  0
 19 22  1  0
 20 23  2  0
 20 24  1  0
 23 25  1  0
 24 26  2  0
 25 27  2  0
  9 11  1  0
 26 27  1  0
M  CHG  3   2   1   3  -1  22  -1
M  END
>  <Molecule Name>  (144) 
UOLGTPNXRYIVCE-CBGLPUEENA-M

>  <hs_clash>  (144) 
0.0

>  <hs_total>  (144) 
102.71925742087839

>  <Total Molweight>  (144) 
372.360

>  <cLogP>  (144) 
-2.5007

>  <H-Acceptors>  (144) 
10

>  <H-Donors>  (144) 
3

>  <Polar Surface Area>  (144) 
165.99

>  <Non-H Atoms>  (144) 
27

>  <sp3-Atoms>  (144) 
6

$$$$
VPOGRVWIIVMWRI-RCPSYSLXNA-N
     RDKit          3D

 27 30  0  0  0  0  0  0  0  0999 V2000
   33.5017   10.9029   64.8016 S   0  0  0  0  0  0  0  0  0  0  0  0
   33.9214   11.2254   66.0941 O   0  0  0  0  0  0  0  0  0  0  0  0
   34.5489   10.4102   64.0476 O   0  0  0  0  0  0  0  0  0  0  0  0
   32.8180   12.1076   64.1172 N   0  0  0  0  0  0  0  0  0  0  0  0
   32.2996    9.6171   64.9507 C   0  0  0  0  0  0  0  0  0  0  0  0
   31.9949    9.1065   66.2065 C   0  0  0  0  0  0  0  0  0  0  0  0
   31.6522    9.1182   63.8107 C   0  0  0  0  0  0  0  0  0  0  0  0
   31.0470    8.0972   66.3423 C   0  0  0  0  0  0  0  0  0  0  0  0
   30.7103    8.0990   63.9375 C   0  0  0  0  0  0  0  0  0  0  0  0
   30.3917    7.5989   65.2144 C   0  0  0  0  0  0  0  0  0  0  0  0
   29.4918    6.5973   65.3559 N   0  0  0  0  0  0  0  0  0  0  0  0
   28.4029    6.4824   64.5356 C   0  0  0  0  0  0  0  0  0  0  0  0
   27.7883    5.2949   64.4157 N   0  0  0  0  0  0  0  0  0  0  0  0
   27.8845    7.5904   63.8348 C   0  0  0  0  0  0  0  0  0  0  0  0
   28.0858    4.1407   65.0005 N   0  0  0  0  0  0  0  0  0  0  0  0
   26.7160    5.1436   63.6697 C   0  0  0  0  0  0  0  0  0  0  0  0
   26.7609    7.3906   63.0094 C   0  0  0  0  0  0  0  0  0  0  0  0
   27.1881    3.2301   64.5632 C   0  0  0  0  0  0  0  0  0  0  0  0
   26.2090    6.1592   62.9329 N   0  0  0  0  0  0  0  0  0  0  0  0
   26.3301    3.8731   63.7157 N   0  0  0  0  0  0  0  0  0  0  0  0
   26.1710    8.4315   62.3313 N   0  0  0  0  0  0  0  0  0  0  0  0
   26.9087    9.6239   61.9331 C   0  0  0  0  0  0  0  0  0  0  0  0
   26.8503   10.5482   63.1439 C   0  0  0  0  0  0  0  0  0  0  0  0
   26.0890   10.2286   60.7950 C   0  0  0  0  0  0  0  0  0  0  0  0
   27.4264   11.9119   62.7721 C   0  0  0  0  0  0  0  0  0  0  0  0
   26.6622   11.5926   60.4211 C   0  0  0  0  0  0  0  0  0  0  0  0
   26.6097   12.5178   61.6339 C   0  0  0  0  0  0  0  0  0  0  0  0
  1  2  2  0
  1  3  2  0
  1  4  1  0
  1  5  1  0
  5  6  2  0
  5  7  1  0
  6  8  1  0
  7  9  2  0
  8 10  2  0
 10 11  1  0
 11 12  1  0
 12 13  1  0
 12 14  2  0
 13 15  1  0
 13 16  1  0
 14 17  1  0
 15 18  2  0
 16 19  1  0
 16 20  2  0
 17 21  1  0
 21 22  1  0
 22 23  1  0
 22 24  1  0
 23 25  1  0
 24 26  1  0
 25 27  1  0
  9 10  1  0
 17 19  2  0
 18 20  1  0
 26 27  1  0
M  END
>  <Molecule Name>  (145) 
VPOGRVWIIVMWRI-RCPSYSLXNA-N

>  <hs_clash>  (145) 
3.0

>  <hs_total>  (145) 
101.71316866770809

>  <Total Molweight>  (145) 
387.467

>  <cLogP>  (145) 
1.4592

>  <H-Acceptors>  (145) 
9

>  <H-Donors>  (145) 
3

>  <Polar Surface Area>  (145) 
135.68

>  <Non-H Atoms>  (145) 
27

>  <sp3-Atoms>  (145) 
7

$$$$
SGOFFNQMBSXTRU-GUHWYDPSNA-N
     RDKit          3D

 27 29  0  0  0  0  0  0  0  0999 V2000
   29.1106   10.9750   64.5438 S   0  0  0  0  0  0  0  0  0  0  0  0
   30.0427   12.0644   64.4598 O   0  0  0  0  0  0  0  0  0  0  0  0
   27.9324   11.4258   65.2429 O   0  0  0  0  0  0  0  0  0  0  0  0
   28.6816   10.4399   63.0469 N   0  0  0  0  0  0  0  0  0  0  0  0
   29.8365    9.6022   65.4185 C   0  0  0  0  0  0  0  0  0  0  0  0
   29.0443    8.5275   65.8807 C   0  0  0  0  0  0  0  0  0  0  0  0
   31.2030    9.5969   65.6590 C   0  0  0  0  0  0  0  0  0  0  0  0
   29.6436    7.4560   66.5578 C   0  0  0  0  0  0  0  0  0  0  0  0
   31.7987    8.5361   66.3506 C   0  0  0  0  0  0  0  0  0  0  0  0
   28.8721    6.3344   67.0806 N   0  0  0  0  0  0  0  0  0  0  0  0
   31.0125    7.4736   66.8029 C   0  0  0  0  0  0  0  0  0  0  0  0
   27.8699    5.6069   66.3151 C   0  0  0  0  0  0  0  0  0  0  0  0
   27.0769    6.2634   65.4231 N   0  0  0  0  0  0  0  0  0  0  0  0
   27.6798    4.2635   66.5321 N   0  0  0  0  0  0  0  0  0  0  0  0
   26.1211    5.6054   64.7091 C   0  0  0  0  0  0  0  0  0  0  0  0
   26.7236    3.5975   65.8393 C   0  0  0  0  0  0  0  0  0  0  0  0
   25.9419    4.2515   64.9194 C   0  0  0  0  0  0  0  0  0  0  0  0
   25.3291    6.4416   63.7130 C   0  0  0  0  0  0  0  0  0  0  0  0
   24.9105    3.4637   64.1786 C   0  0  0  0  0  0  0  0  0  0  0  0
   26.0226    7.3163   62.5527 S   0  0  0  0  0  0  0  0  0  0  0  0
   23.9125    6.6331   63.6435 C   0  0  0  0  0  0  0  0  0  0  0  0
   24.1175    2.8575   63.6163 N   0  0  0  0  0  0  0  0  0  0  0  0
   24.7159    7.9847   61.8389 C   0  0  0  0  0  0  0  0  0  0  0  0
   23.5734    7.5457   62.5187 N   0  0  0  0  0  0  0  0  0  0  0  0
   22.9163    6.0066   64.5510 C   0  0  0  0  0  0  0  0  0  0  0  0
   24.7476    8.9013   60.7156 N   0  0  0  0  0  0  0  0  0  0  0  0
   25.9218    9.7214   60.4875 C   0  0  0  0  0  0  0  0  0  0  0  0
  1  2  2  0
  1  3  2  0
  1  4  1  0
  1  5  1  0
  5  6  2  0
  5  7  1  0
  6  8  1  0
  7  9  2  0
  8 10  1  0
  8 11  2  0
 10 12  1  0
 12 13  2  0
 12 14  1  0
 13 15  1  0
 14 16  2  0
 15 17  2  0
 15 18  1  0
 17 19  1  0
 18 20  1  0
 18 21  2  0
 19 22  3  0
 20 23  1  0
 21 24  1  0
 21 25  1  0
 23 26  1  0
 26 27  1  0
  9 11  1  0
 16 17  1  0
 23 24  2  0
M  END
>  <Molecule Name>  (146) 
SGOFFNQMBSXTRU-GUHWYDPSNA-N

>  <hs_clash>  (146) 
23.0

>  <hs_total>  (146) 
100.69621973067639

>  <Total Molweight>  (146) 
401.474

>  <cLogP>  (146) 
2.2554

>  <H-Acceptors>  (146) 
9

>  <H-Donors>  (146) 
3

>  <Polar Surface Area>  (146) 
183.3

>  <Non-H Atoms>  (146) 
27

>  <sp3-Atoms>  (146) 
3

$$$$
RIGZCVNCFXYBEG-NPVYFSBINA-N
     RDKit          3D

 22 25  0  0  0  0  0  0  0  0999 V2000
   28.7471    7.7192   64.4077 O   0  0  0  0  0  0  0  0  0  0  0  0
   29.6045    7.0317   64.9694 C   0  0  0  0  0  0  0  0  0  0  0  0
   29.4008    5.7720   65.3960 N   0  0  0  0  0  0  0  0  0  0  0  0
   31.0120    7.6172   65.2112 C   0  0  0  0  0  0  0  0  0  0  0  0
   28.2364    4.8916   65.3459 C   0  0  0  0  0  0  0  0  0  0  0  0
   30.9720    8.7151   66.2691 C   0  0  0  0  0  0  0  0  0  0  0  0
   28.2007    3.6022   65.8187 N   0  0  0  0  0  0  0  0  0  0  0  0
   26.9920    5.2106   64.8042 C   0  0  0  0  0  0  0  0  0  0  0  0
   31.2313    8.3982   67.6318 C   0  0  0  0  0  0  0  0  0  0  0  0
   30.6647   10.0563   65.8835 C   0  0  0  0  0  0  0  0  0  0  0  0
   26.9737    3.1229   65.5799 N   0  0  0  0  0  0  0  0  0  0  0  0
   26.2041    4.0790   64.9587 C   0  0  0  0  0  0  0  0  0  0  0  0
   31.1811    9.4141   68.6146 C   0  0  0  0  0  0  0  0  0  0  0  0
   30.6095   11.0947   66.8397 C   0  0  0  0  0  0  0  0  0  0  0  0
   24.7305    3.8579   64.5391 C   0  0  0  0  0  0  0  0  0  0  0  0
   30.8634   10.8162   68.2026 C   0  0  0  0  0  0  0  0  0  0  0  0
   31.4336    9.1338   69.9820 C   0  0  0  0  0  0  0  0  0  0  0  0
   23.8912    5.0735   64.1435 C   0  0  0  0  0  0  0  0  0  0  0  0
   24.3875    4.1082   63.0710 C   0  0  0  0  0  0  0  0  0  0  0  0
   30.8125   11.8388   69.1920 C   0  0  0  0  0  0  0  0  0  0  0  0
   31.3754   10.1822   70.9428 C   0  0  0  0  0  0  0  0  0  0  0  0
   31.0706   11.5166   70.5520 C   0  0  0  0  0  0  0  0  0  0  0  0
  1  2  2  0
  2  3  1  0
  2  4  1  0
  3  5  1  0
  4  6  1  0
  5  7  2  0
  5  8  1  0
  6  9  2  0
  6 10  1  0
  7 11  1  0
  8 12  2  0
  9 13  1  0
 10 14  2  0
 12 15  1  0
 13 16  2  0
 13 17  1  0
 15 18  1  0
 15 19  1  0
 16 20  1  0
 17 21  2  0
 20 22  2  0
 11 12  1  0
 14 16  1  0
 18 19  1  0
 21 22  1  0
M  END
>  <Molecule Name>  (147) 
RIGZCVNCFXYBEG-NPVYFSBINA-N

>  <hs_clash>  (147) 
3.0

>  <hs_total>  (147) 
100.61956534048639

>  <Total Molweight>  (147) 
291.353

>  <cLogP>  (147) 
3.4094

>  <H-Acceptors>  (147) 
4

>  <H-Donors>  (147) 
2

>  <Polar Surface Area>  (147) 
57.78

>  <Non-H Atoms>  (147) 
22

>  <sp3-Atoms>  (147) 
4

$$$$
GCUAWHJDWUEGRV-OKXXHDAJNA-M
     RDKit          3D

 24 26  0  0  0  0  0  0  0  0999 V2000
   27.8773    6.2690   63.8291 S   0  0  0  0  0  0  0  0  0  0  0  0
   28.8548    5.3927   64.9711 C   0  0  0  0  0  0  0  0  0  0  0  0
   26.9024    4.8646   63.6988 C   0  0  0  0  0  0  0  0  0  0  0  0
   28.4395    4.1503   65.2228 N   0  0  0  0  0  0  0  0  0  0  0  0
   29.9860    5.8345   65.6086 N   0  0  0  0  0  0  0  0  0  0  0  0
   27.3528    3.8404   64.5244 C   0  0  0  0  0  0  0  0  0  0  0  0
   25.7206    4.7825   62.7895 C   0  0  0  0  0  0  0  0  0  0  0  0
   30.6302    7.0391   65.4987 C   0  0  0  0  0  0  0  0  0  0  0  0
   26.8103    2.6822   64.6206 N   0  0  0  0  0  0  0  0  0  0  0  0
   25.0121    3.6328   62.7689 O   0  0  0  0  0  0  0  0  0  0  0  0
   25.2980    5.8937   61.8856 C   0  0  0  0  0  0  0  0  0  0  0  0
   31.5308    7.4074   66.5528 C   0  0  0  0  0  0  0  0  0  0  0  0
   30.4789    7.9432   64.3791 C   0  0  0  0  0  0  0  0  0  0  0  0
   23.9308    6.2573   61.7633 C   0  0  0  0  0  0  0  0  0  0  0  0
   26.2613    6.6187   61.0882 C   0  0  0  0  0  0  0  0  0  0  0  0
   32.2506    8.6185   66.4999 C   0  0  0  0  0  0  0  0  0  0  0  0
   31.2019    9.1614   64.3291 C   0  0  0  0  0  0  0  0  0  0  0  0
   23.5700    7.2861   60.9009 N   0  0  0  0  0  0  0  0  0  0  0  0
   25.8527    7.6686   60.2168 C   0  0  0  0  0  0  0  0  0  0  0  0
   32.1012    9.5141   65.3897 C   0  0  0  0  0  0  0  0  0  0  0  0
   24.4823    7.9904   60.1385 C   0  0  0  0  0  0  0  0  0  0  0  0
   32.8821   10.7824   65.3636 C   0  0  0  0  0  0  0  0  0  0  0  0
   33.7224   11.0537   66.3948 O   0  0  0  0  0  0  0  0  0  0  0  0
   32.7782   11.7058   64.3021 O   0  0  0  0  0  0  0  0  0  0  0  0
  1  2  1  0
  1  3  1  0
  2  4  2  0
  2  5  1  0
  3  6  2  0
  3  7  1  0
  5  8  1  0
  6  9  1  0
  7 10  2  0
  7 11  1  0
  8 12  2  0
  8 13  1  0
 11 14  2  0
 11 15  1  0
 12 16  1  0
 13 17  2  0
 14 18  1  0
 15 19  2  0
 16 20  2  0
 18 21  2  0
 20 22  1  0
 22 23  2  0
 22 24  1  0
  4  6  1  0
 17 20  1  0
 19 21  1  0
M  CHG  1  24  -1
M  END
>  <Molecule Name>  (148) 
GCUAWHJDWUEGRV-OKXXHDAJNA-M

>  <hs_clash>  (148) 
0.0

>  <hs_total>  (148) 
100.04763941464421

>  <Total Molweight>  (148) 
339.354

>  <cLogP>  (148) 
-0.0606

>  <H-Acceptors>  (148) 
7

>  <H-Donors>  (148) 
2

>  <Polar Surface Area>  (148) 
149.27

>  <Non-H Atoms>  (148) 
24

>  <sp3-Atoms>  (148) 
1

$$$$
CAGHIASAHLPQMS-HCKMINDGNA-N
     RDKit          3D

 19 22  0  0  0  0  0  0  0  0999 V2000
   26.2508    5.8405   64.8619 N   0  0  0  0  0  0  0  0  0  0  0  0
   27.2988    5.4683   65.6123 C   0  0  0  0  0  0  0  0  0  0  0  0
   25.4895    4.8559   64.3712 C   0  0  0  0  0  0  0  0  0  0  0  0
   27.6234    4.2024   65.9103 N   0  0  0  0  0  0  0  0  0  0  0  0
   28.1221    6.4620   66.1468 N   0  0  0  0  0  0  0  0  0  0  0  0
   24.3832    5.2032   63.5178 C   0  0  0  0  0  0  0  0  0  0  0  0
   25.7395    3.5253   64.6174 C   0  0  0  0  0  0  0  0  0  0  0  0
   26.8288    3.2557   65.4090 C   0  0  0  0  0  0  0  0  0  0  0  0
   28.7245    7.3995   65.2106 C   0  0  0  0  0  0  0  0  0  0  0  0
   24.2356    6.3848   62.8235 C   0  0  0  0  0  0  0  0  0  0  0  0
   23.2465    4.4428   63.1525 C   0  0  0  0  0  0  0  0  0  0  0  0
   28.3431    8.8520   65.2354 C   0  0  0  0  0  0  0  0  0  0  0  0
   29.7061    8.4260   65.6880 C   0  0  0  0  0  0  0  0  0  0  0  0
   23.0641    6.2799   62.1187 N   0  0  0  0  0  0  0  0  0  0  0  0
   24.9648    7.5824   62.6963 C   0  0  0  0  0  0  0  0  0  0  0  0
   22.4473    5.0967   62.3022 N   0  0  0  0  0  0  0  0  0  0  0  0
   22.5321    7.2104   61.2939 N   0  0  0  0  0  0  0  0  0  0  0  0
   24.5213    8.5692   61.9070 C   0  0  0  0  0  0  0  0  0  0  0  0
   23.2432    8.2928   61.2102 C   0  0  0  0  0  0  0  0  0  0  0  0
  1  2  2  0
  1  3  1  0
  2  4  1  0
  2  5  1  0
  3  6  1  0
  3  7  2  0
  4  8  2  0
  5  9  1  0
  6 10  2  0
  6 11  1  0
  9 12  1  0
  9 13  1  0
 10 14  1  0
 10 15  1  0
 11 16  2  0
 14 17  1  0
 15 18  2  0
 17 19  2  0
  7  8  1  0
 12 13  1  0
 14 16  1  0
 18 19  1  0
M  END
>  <Molecule Name>  (149) 
CAGHIASAHLPQMS-HCKMINDGNA-N

>  <hs_clash>  (149) 
0.0

>  <hs_total>  (149) 
99.98901993706339

>  <Total Molweight>  (149) 
252.280

>  <cLogP>  (149) 
0.7409

>  <H-Acceptors>  (149) 
6

>  <H-Donors>  (149) 
1

>  <Polar Surface Area>  (149) 
68

>  <Non-H Atoms>  (149) 
19

>  <sp3-Atoms>  (149) 
3

$$$$
CTFDMGIBHFQWKB-GIMVELNWNA-N
     RDKit          3D

 14 15  0  0  0  0  0  0  0  0999 V2000
   23.8951    4.6761   62.9078 S   0  0  0  0  0  0  0  0  0  0  0  0
   25.2150    5.4919   63.6783 C   0  0  0  0  0  0  0  0  0  0  0  0
   23.4602    6.1898   62.2523 C   0  0  0  0  0  0  0  0  0  0  0  0
   26.1671    4.8738   64.4793 C   0  0  0  0  0  0  0  0  0  0  0  0
   25.2198    6.9469   63.3590 C   0  0  0  0  0  0  0  0  0  0  0  0
   24.1933    7.2745   62.5573 N   0  0  0  0  0  0  0  0  0  0  0  0
   22.2548    6.3235   61.3678 C   0  0  0  0  0  0  0  0  0  0  0  0
   27.1385    5.6030   65.0406 N   0  0  0  0  0  0  0  0  0  0  0  0
   26.1025    3.5055   64.7197 C   0  0  0  0  0  0  0  0  0  0  0  0
   26.1158    8.0801   63.7696 C   0  0  0  0  0  0  0  0  0  0  0  0
   28.0595    5.0215   65.8201 C   0  0  0  0  0  0  0  0  0  0  0  0
   27.0710    2.9283   65.5341 C   0  0  0  0  0  0  0  0  0  0  0  0
   28.0260    3.7039   66.0594 N   0  0  0  0  0  0  0  0  0  0  0  0
   29.0844    5.8059   66.3725 N   0  0  0  0  0  0  0  0  0  0  0  0
  1  2  1  0
  1  3  1  0
  2  4  1  0
  2  5  2  0
  3  6  2  0
  3  7  1  0
  4  8  2  0
  4  9  1  0
  5 10  1  0
  8 11  1  0
  9 12  2  0
 11 13  2  0
 11 14  1  0
  5  6  1  0
 12 13  1  0
M  END
>  <Molecule Name>  (150) 
CTFDMGIBHFQWKB-GIMVELNWNA-N

>  <hs_clash>  (150) 
0.0

>  <hs_total>  (150) 
99.9756894695403

>  <Total Molweight>  (150) 
206.272

>  <cLogP>  (150) 
1.3498

>  <H-Acceptors>  (150) 
4

>  <H-Donors>  (150) 
1

>  <Polar Surface Area>  (150) 
92.93

>  <Non-H Atoms>  (150) 
14

>  <sp3-Atoms>  (150) 
2

$$$$
IDZSPROLKKFEMF-VDHNXVJHNA-O
     RDKit          3D

 30 32  0  0  0  0  0  0  0  0999 V2000
   24.0522    8.3861   62.1317 O   0  0  0  0  0  0  0  0  0  0  0  0
   24.2968    7.4834   63.0593 N   0  0  0  0  0  0  0  0  0  0  0  0
   23.2861    6.7787   63.5215 O   0  0  0  0  0  0  0  0  0  0  0  0
   25.5010    7.2762   63.4884 C   0  0  0  0  0  0  0  0  0  0  0  0
   26.4961    8.3100   63.4440 C   0  0  0  0  0  0  0  0  0  0  0  0
   25.8546    5.9959   64.0225 C   0  0  0  0  0  0  0  0  0  0  0  0
   26.1950    9.4798   62.9782 N   0  0  0  0  0  0  0  0  0  0  0  0
   27.8166    8.0395   63.9224 C   0  0  0  0  0  0  0  0  0  0  0  0
   27.1779    5.7156   64.5091 C   0  0  0  0  0  0  0  0  0  0  0  0
   26.9730   10.1278   61.8939 C   0  0  0  0  0  0  0  0  0  0  0  0
   28.1820    6.7450   64.4587 C   0  0  0  0  0  0  0  0  0  0  0  0
   27.4487    4.4567   65.0160 C   0  0  0  0  0  0  0  0  0  0  0  0
   26.1114   11.2157   61.2370 C   0  0  0  0  0  0  0  0  0  0  0  0
   29.3944    6.4920   64.9010 N   0  0  0  0  0  0  0  0  0  0  0  0
   28.3277    4.2888   65.8532 O   0  0  0  0  0  0  0  0  0  0  0  0
   26.7221    3.3762   64.5943 N   0  0  0  0  0  0  0  0  0  0  0  0
   26.3967   11.2906   59.8235 N   0  0  0  0  0  0  0  0  0  0  0  0
   30.6286    7.2584   64.5361 C   0  0  0  0  0  0  0  0  0  0  0  0
   27.2590   12.2971   59.1945 C   0  0  0  0  0  0  0  0  0  0  0  0
   25.8811   10.3682   58.8066 C   0  0  0  0  0  0  0  0  0  0  0  0
   30.7795    8.4509   65.4484 C   0  0  0  0  0  0  0  0  0  0  0  0
   26.5053   13.0401   58.0698 C   0  0  0  0  0  0  0  0  0  0  0  0
   25.1232   11.1444   57.7199 C   0  0  0  0  0  0  0  0  0  0  0  0
   30.9003    9.7563   64.9582 C   0  0  0  0  0  0  0  0  0  0  0  0
   30.7914    8.3410   66.8414 C   0  0  0  0  0  0  0  0  0  0  0  0
   26.0313   12.0830   57.0825 N   0  0  0  0  0  0  0  0  0  0  0  0
   31.0253   10.8629   65.7582 N   0  0  0  0  0  0  0  0  0  0  0  0
   30.9130    9.4079   67.6917 N   0  0  0  0  0  0  0  0  0  0  0  0
   31.0230   10.6336   67.1017 C   0  0  0  0  0  0  0  0  0  0  0  0
   31.1352   11.6441   67.8647 N   0  0  0  0  0  0  0  0  0  0  0  0
  1  2  2  0
  2  3  1  0
  2  4  1  0
  4  5  2  0
  4  6  1  0
  5  7  1  0
  5  8  1  0
  6  9  2  0
  7 10  1  0
  8 11  2  0
  9 12  1  0
 10 13  1  0
 11 14  1  0
 12 15  2  0
 12 16  1  0
 13 17  1  0
 14 18  1  0
 17 19  1  0
 17 20  1  0
 18 21  1  0
 19 22  1  0
 20 23  1  0
 21 24  2  0
 21 25  1  0
 22 26  1  0
 24 27  1  0
 25 28  2  0
 27 29  2  0
 29 30  1  0
  9 11  1  0
 23 26  1  0
 28 29  1  0
M  CHG  3   2   1   3  -1  26   1
M  END
>  <Molecule Name>  (151) 
IDZSPROLKKFEMF-VDHNXVJHNA-O

>  <hs_clash>  (151) 
0.0

>  <hs_total>  (151) 
98.45503690804927

>  <Total Molweight>  (151) 
416.464

>  <cLogP>  (151) 
-2.9959

>  <H-Acceptors>  (151) 
12

>  <H-Donors>  (151) 
5

>  <Polar Surface Area>  (151) 
184.62

>  <Non-H Atoms>  (151) 
30

>  <sp3-Atoms>  (151) 
10

$$$$
PLQVWKCQWFFUFJ-ZMKPQBMCNA-O
     RDKit          3D

 28 31  0  0  0  0  0  0  0  0999 V2000
   27.8240   10.4568   64.3760 O   0  0  0  0  0  0  0  0  0  0  0  0
   28.9669    9.9944   63.6725 N   0  0  0  0  0  0  0  0  0  0  0  0
   29.0969   10.3866   62.2913 O   0  0  0  0  0  0  0  0  0  0  0  0
   29.7611    9.1822   64.3891 C   0  0  0  0  0  0  0  0  0  0  0  0
   29.3470    7.8800   64.6957 C   0  0  0  0  0  0  0  0  0  0  0  0
   30.9412    9.6720   64.9441 C   0  0  0  0  0  0  0  0  0  0  0  0
   30.0708    7.0335   65.5373 C   0  0  0  0  0  0  0  0  0  0  0  0
   31.6854    8.8453   65.7832 C   0  0  0  0  0  0  0  0  0  0  0  0
   29.7243    5.7621   65.8077 N   0  0  0  0  0  0  0  0  0  0  0  0
   31.2405    7.5607   66.0827 C   0  0  0  0  0  0  0  0  0  0  0  0
   28.7475    5.0665   65.2065 C   0  0  0  0  0  0  0  0  0  0  0  0
   27.8990    5.6554   64.3398 N   0  0  0  0  0  0  0  0  0  0  0  0
   28.5765    3.7508   65.4271 N   0  0  0  0  0  0  0  0  0  0  0  0
   26.9331    4.9490   63.7215 C   0  0  0  0  0  0  0  0  0  0  0  0
   27.6467    2.9912   64.8542 C   0  0  0  0  0  0  0  0  0  0  0  0
   26.1212    5.5461   62.7613 C   0  0  0  0  0  0  0  0  0  0  0  0
   26.7513    3.5876   63.9814 C   0  0  0  0  0  0  0  0  0  0  0  0
   26.5558    6.6108   61.9767 C   0  0  0  0  0  0  0  0  0  0  0  0
   24.8779    4.9724   62.5337 C   0  0  0  0  0  0  0  0  0  0  0  0
   25.7393    7.1305   60.9771 C   0  0  0  0  0  0  0  0  0  0  0  0
   24.0405    5.5099   61.5652 C   0  0  0  0  0  0  0  0  0  0  0  0
   24.4689    6.5970   60.8171 C   0  0  0  0  0  0  0  0  0  0  0  0
   26.1049    8.3181   60.0803 C   0  0  0  0  0  0  0  0  0  0  0  0
   25.5734    9.5424   60.7032 N   0  0  0  0  0  0  0  0  0  0  0  0
   24.3769    9.7494   60.9148 N   0  0  0  0  0  0  0  0  0  0  0  0
   26.3375   10.5232   61.1802 C   0  0  0  0  0  0  0  0  0  0  0  0
   24.2616   10.9275   61.5221 C   0  0  0  0  0  0  0  0  0  0  0  0
   25.4924   11.4206   61.6803 N   0  0  0  0  0  0  0  0  0  0  0  0
  1  2  2  0
  2  3  1  0
  2  4  1  0
  4  5  2  0
  4  6  1  0
  5  7  1  0
  6  8  2  0
  7  9  1  0
  7 10  2  0
  9 11  2  0
 11 12  1  0
 11 13  1  0
 12 14  2  0
 13 15  2  0
 14 16  1  0
 14 17  1  0
 16 18  2  0
 16 19  1  0
 18 20  1  0
 19 21  2  0
 20 22  2  0
 20 23  1  0
 23 24  1  0
 24 25  1  0
 24 26  1  0
 25 27  2  0
 26 28  2  0
  8 10  1  0
 15 17  1  0
 21 22  1  0
 27 28  1  0
M  CHG  3   2   1   3  -1   9   1
M  END
>  <Molecule Name>  (152) 
PLQVWKCQWFFUFJ-ZMKPQBMCNA-O

>  <hs_clash>  (152) 
1.0

>  <hs_total>  (152) 
98.22570261003871

>  <Total Molweight>  (152) 
374.383

>  <cLogP>  (152) 
1.3642

>  <H-Acceptors>  (152) 
9

>  <H-Donors>  (152) 
1

>  <Polar Surface Area>  (152) 
115.22

>  <Non-H Atoms>  (152) 
28

>  <sp3-Atoms>  (152) 
3

$$$$
MTASIWVJZCLGMA-YDBXFXKPNA-N
     RDKit          3D

 29 32  0  0  0  0  0  0  0  0999 V2000
   32.3079   11.2051   64.5792 S   0  0  0  0  0  0  0  0  0  0  0  0
   33.2598   12.0179   65.5265 O   0  0  0  0  0  0  0  0  0  0  0  0
   33.0935   10.4043   63.5107 O   0  0  0  0  0  0  0  0  0  0  0  0
   31.4776   12.1473   63.8565 N   0  0  0  0  0  0  0  0  0  0  0  0
   31.3836   10.0683   65.6205 C   0  0  0  0  0  0  0  0  0  0  0  0
   30.4629    9.1114   65.1452 C   0  0  0  0  0  0  0  0  0  0  0  0
   31.6990   10.1528   66.9769 C   0  0  0  0  0  0  0  0  0  0  0  0
   29.8427    8.2568   66.0786 C   0  0  0  0  0  0  0  0  0  0  0  0
   30.1795    9.0093   63.7885 C   0  0  0  0  0  0  0  0  0  0  0  0
   31.1054    9.3077   67.8941 C   0  0  0  0  0  0  0  0  0  0  0  0
   28.9748    7.2927   65.7515 C   0  0  0  0  0  0  0  0  0  0  0  0
   30.1895    8.3693   67.4248 C   0  0  0  0  0  0  0  0  0  0  0  0
   27.8301    7.3781   65.0425 N   0  0  0  0  0  0  0  0  0  0  0  0
   29.1891    6.0275   66.1627 N   0  0  0  0  0  0  0  0  0  0  0  0
   27.3349    6.1184   65.0075 C   0  0  0  0  0  0  0  0  0  0  0  0
   28.1716    5.3040   65.7072 C   0  0  0  0  0  0  0  0  0  0  0  0
   26.2345    5.5633   64.4354 C   0  0  0  0  0  0  0  0  0  0  0  0
   27.9333    3.9830   65.8217 N   0  0  0  0  0  0  0  0  0  0  0  0
   25.3669    6.4151   63.7627 O   0  0  0  0  0  0  0  0  0  0  0  0
   25.9658    4.2303   64.5726 N   0  0  0  0  0  0  0  0  0  0  0  0
   26.8342    3.4566   65.2451 C   0  0  0  0  0  0  0  0  0  0  0  0
   25.2672    6.1880   62.3335 C   0  0  0  0  0  0  0  0  0  0  0  0
   26.6021    2.1756   65.3552 N   0  0  0  0  0  0  0  0  0  0  0  0
   24.2001    7.1273   61.7423 C   0  0  0  0  0  0  0  0  0  0  0  0
   24.2547    8.4960   62.4694 C   0  0  0  0  0  0  0  0  0  0  0  0
   24.4823    7.3307   60.1857 C   0  0  0  0  0  0  0  0  0  0  0  0
   23.6930    9.6159   61.6059 C   0  0  0  0  0  0  0  0  0  0  0  0
   25.4088    8.6048   59.8934 C   0  0  0  0  0  0  0  0  0  0  0  0
   24.6782    9.8811   60.3584 C   0  0  0  0  0  0  0  0  0  0  0  0
  1  2  2  0
  1  3  2  0
  1  4  1  0
  1  5  1  0
  5  6  2  0
  5  7  1  0
  6  8  1  0
  6  9  1  0
  7 10  2  0
  8 11  1  0
  8 12  2  0
 11 13  2  0
 11 14  1  0
 13 15  1  0
 14 16  1  0
 15 17  2  0
 16 18  2  0
 17 19  1  0
 17 20  1  0
 18 21  1  0
 19 22  1  0
 21 23  1  0
 22 24  1  0
 24 25  1  0
 24 26  1  0
 25 27  1  0
 26 28  1  0
 27 29  1  0
 10 12  1  0
 15 16  1  0
 20 21  2  0
 28 29  1  0
M  END
>  <Molecule Name>  (153) 
MTASIWVJZCLGMA-YDBXFXKPNA-N

>  <hs_clash>  (153) 
5.0

>  <hs_total>  (153) 
98.2089241645682

>  <Total Molweight>  (153) 
416.505

>  <cLogP>  (153) 
2.4538

>  <H-Acceptors>  (153) 
9

>  <H-Donors>  (153) 
3

>  <Polar Surface Area>  (153) 
158.25

>  <Non-H Atoms>  (153) 
29

>  <sp3-Atoms>  (153) 
10

$$$$
XOLMRFUGOINFDQ-IRXZHZTGNA-O
     RDKit          3D

 24 27  0  0  0  0  0  0  0  0999 V2000
   22.8004    5.3711   61.9658 S   0  0  0  0  0  0  0  0  0  0  0  0
   23.4331    6.7826   61.1419 C   0  0  0  0  0  0  0  0  0  0  0  0
   24.3085    5.1711   62.8150 C   0  0  0  0  0  0  0  0  0  0  0  0
   22.7857    7.5631   60.2504 N   0  0  0  0  0  0  0  0  0  0  0  0
   24.7034    7.1223   61.4415 N   0  0  0  0  0  0  0  0  0  0  0  0
   25.1932    6.2737   62.3468 C   0  0  0  0  0  0  0  0  0  0  0  0
   24.5885    4.0954   63.8084 C   0  0  0  0  0  0  0  0  0  0  0  0
   22.9422    9.0202   60.3405 C   0  0  0  0  0  0  0  0  0  0  0  0
   26.3925    6.4550   62.7424 O   0  0  0  0  0  0  0  0  0  0  0  0
   25.9193    4.0116   64.4717 C   0  0  0  0  0  0  0  0  0  0  0  0
   24.3394    9.4900   60.7453 C   0  0  0  0  0  0  0  0  0  0  0  0
   26.6904    5.1669   64.6134 C   0  0  0  0  0  0  0  0  0  0  0  0
   26.3996    2.7936   64.9652 C   0  0  0  0  0  0  0  0  0  0  0  0
   24.5255   10.3090   62.2638 S   0  0  0  0  0  0  0  0  0  0  0  0
   25.5974    9.4125   60.1621 C   0  0  0  0  0  0  0  0  0  0  0  0
   27.9387    5.1354   65.2104 C   0  0  0  0  0  0  0  0  0  0  0  0
   27.6520    2.7061   65.5820 C   0  0  0  0  0  0  0  0  0  0  0  0
   26.2329   10.5557   62.1604 C   0  0  0  0  0  0  0  0  0  0  0  0
   26.6124    9.9893   60.9459 C   0  0  0  0  0  0  0  0  0  0  0  0
   28.4466    3.8424   65.7273 C   0  0  0  0  0  0  0  0  0  0  0  0
   28.7224    6.2753   65.3454 C   0  0  0  0  0  0  0  0  0  0  0  0
   29.6629    3.8058   66.3199 N   0  0  0  0  0  0  0  0  0  0  0  0
   29.9643    6.1582   65.9695 C   0  0  0  0  0  0  0  0  0  0  0  0
   30.4074    4.9194   66.4418 C   0  0  0  0  0  0  0  0  0  0  0  0
  1  2  1  0
  1  3  1  0
  2  4  2  0
  2  5  1  0
  3  6  1  0
  3  7  2  0
  4  8  1  0
  6  9  2  0
  7 10  1  0
  8 11  1  0
 10 12  2  0
 10 13  1  0
 11 14  1  0
 11 15  2  0
 12 16  1  0
 13 17  2  0
 14 18  1  0
 15 19  1  0
 16 20  2  0
 16 21  1  0
 20 22  1  0
 21 23  2  0
 22 24  2  0
  5  6  1  0
 17 20  1  0
 18 19  2  0
 23 24  1  0
M  CHG  1   4   1
M  END
>  <Molecule Name>  (154) 
XOLMRFUGOINFDQ-IRXZHZTGNA-O

>  <hs_clash>  (154) 
5.0

>  <hs_total>  (154) 
97.80750920008694

>  <Total Molweight>  (154) 
352.461

>  <cLogP>  (154) 
2.9926

>  <H-Acceptors>  (154) 
4

>  <H-Donors>  (154) 
2

>  <Polar Surface Area>  (154) 
109.5

>  <Non-H Atoms>  (154) 
24

>  <sp3-Atoms>  (154) 
2

$$$$
TZWAPMQFRGZIFN-PHOVEKIENA-N
     RDKit          3D

 27 30  0  0  0  0  0  0  0  0999 V2000
   33.6468   10.8234   65.0669 S   0  0  0  0  0  0  0  0  0  0  0  0
   34.5535   10.6088   66.1588 O   0  0  0  0  0  0  0  0  0  0  0  0
   34.1922   10.8406   63.7476 O   0  0  0  0  0  0  0  0  0  0  0  0
   32.8853   12.2879   65.3477 N   0  0  0  0  0  0  0  0  0  0  0  0
   32.3871    9.5758   65.0285 C   0  0  0  0  0  0  0  0  0  0  0  0
   32.2085   12.6377   66.6441 C   0  0  0  0  0  0  0  0  0  0  0  0
   31.4847    9.5367   63.8530 C   0  0  0  0  0  0  0  0  0  0  0  0
   32.2049    8.6426   66.1629 C   0  0  0  0  0  0  0  0  0  0  0  0
   30.8398   13.6414   66.7350 S   0  0  0  0  0  0  0  0  0  0  0  0
   32.5757   12.2358   67.8984 N   0  0  0  0  0  0  0  0  0  0  0  0
   30.4478    8.5246   63.7810 C   0  0  0  0  0  0  0  0  0  0  0  0
   31.1370    7.6284   66.1060 C   0  0  0  0  0  0  0  0  0  0  0  0
   30.6888   13.4558   68.4147 C   0  0  0  0  0  0  0  0  0  0  0  0
   31.7615   12.6939   68.9088 C   0  0  0  0  0  0  0  0  0  0  0  0
   30.2552    7.5566   64.9225 C   0  0  0  0  0  0  0  0  0  0  0  0
   29.3123    6.5900   64.9727 N   0  0  0  0  0  0  0  0  0  0  0  0
   28.0115    6.5960   64.2587 C   0  0  0  0  0  0  0  0  0  0  0  0
   27.2408    5.5081   64.0861 C   0  0  0  0  0  0  0  0  0  0  0  0
   27.4343    4.1568   64.7551 C   0  0  0  0  0  0  0  0  0  0  0  0
   26.0873    5.3217   63.2396 C   0  0  0  0  0  0  0  0  0  0  0  0
   28.3297    3.9257   65.5711 O   0  0  0  0  0  0  0  0  0  0  0  0
   26.5082    3.2871   64.2806 N   0  0  0  0  0  0  0  0  0  0  0  0
   25.6968    3.9193   63.3684 C   0  0  0  0  0  0  0  0  0  0  0  0
   25.3290    6.2667   62.3642 C   0  0  0  0  0  0  0  0  0  0  0  0
   24.5570    3.3855   62.5961 C   0  0  0  0  0  0  0  0  0  0  0  0
   24.1513    5.7451   61.6137 C   0  0  0  0  0  0  0  0  0  0  0  0
   23.7735    4.3081   61.7255 C   0  0  0  0  0  0  0  0  0  0  0  0
  1  2  2  0
  1  3  2  0
  1  4  1  0
  1  5  1  0
  4  6  1  0
  5  7  2  0
  5  8  1  0
  6  9  1  0
  6 10  2  0
  7 11  1  0
  8 12  2  0
  9 13  1  0
 10 14  1  0
 11 15  2  0
 15 16  1  0
 16 17  2  0
 17 18  1  0
 18 19  2  0
 18 20  1  0
 19 21  1  0
 19 22  1  0
 20 23  2  0
 20 24  1  0
 23 25  1  0
 24 26  2  0
 25 27  2  0
 12 15  1  0
 13 14  2  0
 22 23  1  0
 26 27  1  0
M  END
>  <Molecule Name>  (155) 
TZWAPMQFRGZIFN-PHOVEKIENA-N

>  <hs_clash>  (155) 
0.0

>  <hs_total>  (155) 
97.21620706143004

>  <Total Molweight>  (155) 
398.466

>  <cLogP>  (155) 
3.0029

>  <H-Acceptors>  (155) 
7

>  <H-Donors>  (155) 
3

>  <Polar Surface Area>  (155) 
144.06

>  <Non-H Atoms>  (155) 
27

>  <sp3-Atoms>  (155) 
2

$$$$
MZWCVBFANHIPTJ-MMEBMOISNA-O
     RDKit          3D

 27 30  0  0  0  0  0  0  0  0999 V2000
   33.1708   10.7629   64.7408 S   0  0  0  0  0  0  0  0  0  0  0  0
   34.2974   10.3364   63.9345 O   0  0  0  0  0  0  0  0  0  0  0  0
   33.6435   11.3355   65.9808 O   0  0  0  0  0  0  0  0  0  0  0  0
   32.2508   11.9749   63.8273 N   0  0  0  0  0  0  0  0  0  0  0  0
   32.1942    9.3804   65.0704 C   0  0  0  0  0  0  0  0  0  0  0  0
   31.3936   12.7791   64.6632 C   0  0  0  0  0  0  0  0  0  0  0  0
   31.1462    9.0094   64.1816 C   0  0  0  0  0  0  0  0  0  0  0  0
   32.4362    8.6220   66.2233 C   0  0  0  0  0  0  0  0  0  0  0  0
   30.3595    7.8738   64.4615 C   0  0  0  0  0  0  0  0  0  0  0  0
   31.6496    7.4866   66.5030 C   0  0  0  0  0  0  0  0  0  0  0  0
   30.6127    7.0880   65.6416 C   0  0  0  0  0  0  0  0  0  0  0  0
   29.8590    5.9355   65.9327 N   0  0  0  0  0  0  0  0  0  0  0  0
   28.8362    5.3726   65.2370 C   0  0  0  0  0  0  0  0  0  0  0  0
   28.1459    6.1538   64.3526 N   0  0  0  0  0  0  0  0  0  0  0  0
   28.4364    4.0852   65.3542 N   0  0  0  0  0  0  0  0  0  0  0  0
   27.0936    5.7267   63.5991 C   0  0  0  0  0  0  0  0  0  0  0  0
   27.4010    3.5611   64.6507 C   0  0  0  0  0  0  0  0  0  0  0  0
   26.4952    6.7191   62.6852 C   0  0  0  0  0  0  0  0  0  0  0  0
   26.6936    4.3879   63.7364 C   0  0  0  0  0  0  0  0  0  0  0  0
   25.2884    6.8221   61.9830 N   0  0  0  0  0  0  0  0  0  0  0  0
   27.1967    7.8817   62.3867 C   0  0  0  0  0  0  0  0  0  0  0  0
   25.3651    8.0407   61.2970 C   0  0  0  0  0  0  0  0  0  0  0  0
   24.0730    5.9494   61.8341 C   0  0  0  0  0  0  0  0  0  0  0  0
   26.4827    8.6482   61.5459 N   0  0  0  0  0  0  0  0  0  0  0  0
   24.3125    8.6353   60.3754 C   0  0  0  0  0  0  0  0  0  0  0  0
   23.4308    5.4555   63.1386 C   0  0  0  0  0  0  0  0  0  0  0  0
   23.8076    4.4837   62.0152 C   0  0  0  0  0  0  0  0  0  0  0  0
  1  2  2  0
  1  3  2  0
  1  4  1  0
  1  5  1  0
  4  6  1  0
  5  7  2  0
  5  8  1  0
  7  9  1  0
  8 10  2  0
  9 11  2  0
 11 12  1  0
 12 13  1  0
 13 14  2  0
 13 15  1  0
 14 16  1  0
 15 17  2  0
 16 18  1  0
 16 19  2  0
 18 20  1  0
 18 21  2  0
 20 22  1  0
 20 23  1  0
 21 24  1  0
 22 25  1  0
 23 26  1  0
 23 27  1  0
 10 11  1  0
 17 19  1  0
 22 24  2  0
 26 27  1  0
M  CHG  1  24   1
M  END
>  <Molecule Name>  (156) 
MZWCVBFANHIPTJ-MMEBMOISNA-O

>  <hs_clash>  (156) 
5.0

>  <hs_total>  (156) 
97.15048637458432

>  <Total Molweight>  (156) 
385.471

>  <cLogP>  (156) 
0.3293

>  <H-Acceptors>  (156) 
8

>  <H-Donors>  (156) 
3

>  <Polar Surface Area>  (156) 
111.43

>  <Non-H Atoms>  (156) 
27

>  <sp3-Atoms>  (156) 
6

$$$$
RGVVHQNJKUNSFQ-ZSRKCBEINA-O
     RDKit          3D

 27 29  0  0  0  0  0  0  0  0999 V2000
   31.5131   10.7869   64.5512 S   0  0  0  0  0  0  0  0  0  0  0  0
   31.8086   11.3307   65.8474 O   0  0  0  0  0  0  0  0  0  0  0  0
   32.7337   10.3850   63.9054 O   0  0  0  0  0  0  0  0  0  0  0  0
   30.7879   11.8983   63.6571 N   0  0  0  0  0  0  0  0  0  0  0  0
   30.4500    9.3941   64.7176 C   0  0  0  0  0  0  0  0  0  0  0  0
   30.4799    8.5799   65.8580 C   0  0  0  0  0  0  0  0  0  0  0  0
   29.5737    9.1036   63.6838 C   0  0  0  0  0  0  0  0  0  0  0  0
   29.6320    7.4740   65.9404 C   0  0  0  0  0  0  0  0  0  0  0  0
   31.4205    8.8956   67.0182 C   0  0  0  0  0  0  0  0  0  0  0  0
   28.7285    8.0117   63.7766 C   0  0  0  0  0  0  0  0  0  0  0  0
   28.7604    7.1926   64.8955 C   0  0  0  0  0  0  0  0  0  0  0  0
   30.9558    9.9372   67.6998 F   0  0  0  0  0  0  0  0  0  0  0  0
   32.6324    9.1793   66.5550 F   0  0  0  0  0  0  0  0  0  0  0  0
   31.4928    7.8467   67.8287 F   0  0  0  0  0  0  0  0  0  0  0  0
   27.8218    6.0279   64.9459 C   0  0  0  0  0  0  0  0  0  0  0  0
   26.7164    5.9076   64.1586 O   0  0  0  0  0  0  0  0  0  0  0  0
   27.9338    4.8742   65.7126 C   0  0  0  0  0  0  0  0  0  0  0  0
   26.1073    4.7167   64.4167 C   0  0  0  0  0  0  0  0  0  0  0  0
   26.8550    4.0539   65.3852 C   0  0  0  0  0  0  0  0  0  0  0  0
   24.8770    4.2384   63.7448 C   0  0  0  0  0  0  0  0  0  0  0  0
   24.3389    4.9874   62.7601 C   0  0  0  0  0  0  0  0  0  0  0  0
   24.7789    6.5573   62.4212 S   0  0  0  0  0  0  0  0  0  0  0  0
   23.3564    4.5498   61.8751 C   0  0  0  0  0  0  0  0  0  0  0  0
   23.6815    6.6499   61.1750 C   0  0  0  0  0  0  0  0  0  0  0  0
   22.8653    3.4259   61.8851 O   0  0  0  0  0  0  0  0  0  0  0  0
   23.0055    5.5083   61.0067 N   0  0  0  0  0  0  0  0  0  0  0  0
   23.5099    7.6834   60.4570 N   0  0  0  0  0  0  0  0  0  0  0  0
  1  2  2  0
  1  3  2  0
  1  4  1  0
  1  5  1  0
  5  6  2  0
  5  7  1  0
  6  8  1  0
  6  9  1  0
  7 10  2  0
  8 11  2  0
  9 12  1  0
  9 13  1  0
  9 14  1  0
 11 15  1  0
 15 16  1  0
 15 17  2  0
 16 18  1  0
 17 19  1  0
 18 20  1  0
 20 21  2  0
 21 22  1  0
 21 23  1  0
 22 24  1  0
 23 25  2  0
 23 26  1  0
 24 27  2  0
 10 11  1  0
 18 19  2  0
 24 26  1  0
M  CHG  1  27   1
M  END
>  <Molecule Name>  (157) 
RGVVHQNJKUNSFQ-ZSRKCBEINA-O

>  <hs_clash>  (157) 
0.0

>  <hs_total>  (157) 
96.91339069634985

>  <Total Molweight>  (157) 
418.395

>  <cLogP>  (157) 
2.224

>  <H-Acceptors>  (157) 
7

>  <H-Donors>  (157) 
3

>  <Polar Surface Area>  (157) 
161.67

>  <Non-H Atoms>  (157) 
27

>  <sp3-Atoms>  (157) 
3

$$$$
OUSFTKFNBAZUKL-VYJIMDAQNA-O
     RDKit          3D

 25 27  0  0  0  0  0  0  0  0999 V2000
   27.0202    6.2216   64.4482 S   0  0  0  0  0  0  0  0  0  0  0  0
   28.4343    5.5668   65.2184 C   0  0  0  0  0  0  0  0  0  0  0  0
   26.3258    4.6231   64.4695 C   0  0  0  0  0  0  0  0  0  0  0  0
   28.4045    4.2816   65.4487 N   0  0  0  0  0  0  0  0  0  0  0  0
   29.5472    6.3098   65.5427 N   0  0  0  0  0  0  0  0  0  0  0  0
   24.6361    4.3987   64.0530 S   0  0  0  0  0  0  0  0  0  0  0  0
   27.2148    3.7572   65.0022 C   0  0  0  0  0  0  0  0  0  0  0  0
   29.7175    7.6276   65.2383 C   0  0  0  0  0  0  0  0  0  0  0  0
   24.5070    4.2390   62.2655 C   0  0  0  0  0  0  0  0  0  0  0  0
   28.8583    8.2895   64.6635 O   0  0  0  0  0  0  0  0  0  0  0  0
   31.0436    8.2077   65.6232 C   0  0  0  0  0  0  0  0  0  0  0  0
   24.1222    5.5659   61.7590 C   0  0  0  0  0  0  0  0  0  0  0  0
   30.9289    8.9590   66.9618 C   0  0  0  0  0  0  0  0  0  0  0  0
   31.5588    9.1520   64.5215 C   0  0  0  0  0  0  0  0  0  0  0  0
   25.1277    6.4868   61.7354 O   0  0  0  0  0  0  0  0  0  0  0  0
   22.9515    6.0817   61.3441 N   0  0  0  0  0  0  0  0  0  0  0  0
   32.2247    9.6758   67.2877 C   0  0  0  0  0  0  0  0  0  0  0  0
   32.8499    9.8255   64.9467 C   0  0  0  0  0  0  0  0  0  0  0  0
   24.5764    7.6575   61.2645 C   0  0  0  0  0  0  0  0  0  0  0  0
   23.2308    7.3938   61.0381 C   0  0  0  0  0  0  0  0  0  0  0  0
   32.5747   10.5860   66.1865 N   0  0  0  0  0  0  0  0  0  0  0  0
   25.5566    8.8112   61.0753 C   0  0  0  0  0  0  0  0  0  0  0  0
   26.9020    8.2736   60.5798 C   0  0  0  0  0  0  0  0  0  0  0  0
   25.7637    9.5531   62.3967 C   0  0  0  0  0  0  0  0  0  0  0  0
   25.0319    9.8014   60.0344 C   0  0  0  0  0  0  0  0  0  0  0  0
  1  2  1  0
  1  3  1  0
  2  4  2  0
  2  5  1  0
  3  6  1  0
  3  7  2  0
  5  8  1  0
  6  9  1  0
  8 10  2  0
  8 11  1  0
  9 12  1  0
 11 13  1  0
 11 14  1  0
 12 15  1  0
 12 16  2  0
 13 17  1  0
 14 18  1  0
 15 19  1  0
 16 20  1  0
 17 21  1  0
 19 22  1  0
 22 23  1  0
 22 24  1  0
 22 25  1  0
  4  7  1  0
 18 21  1  0
 19 20  2  0
M  CHG  1  21   1
M  END
>  <Molecule Name>  (158) 
OUSFTKFNBAZUKL-VYJIMDAQNA-O

>  <hs_clash>  (158) 
0.0

>  <hs_total>  (158) 
96.68770669196536

>  <Total Molweight>  (158) 
381.544

>  <cLogP>  (158) 
3.028

>  <H-Acceptors>  (158) 
6

>  <H-Donors>  (158) 
2

>  <Polar Surface Area>  (158) 
138.17

>  <Non-H Atoms>  (158) 
25

>  <sp3-Atoms>  (158) 
12

$$$$
NYEMVPGQXLAKEH-QRLNQVTDNA-N
     RDKit          3D

 20 21  0  0  0  0  0  0  0  0999 V2000
   33.1751   10.5774   64.6982 S   0  0  0  0  0  0  0  0  0  0  0  0
   34.3526   10.0818   63.7369 O   0  0  0  0  0  0  0  0  0  0  0  0
   33.7864   11.0884   66.1219 O   0  0  0  0  0  0  0  0  0  0  0  0
   32.3986   11.7184   63.9764 N   0  0  0  0  0  0  0  0  0  0  0  0
   32.2197    9.3193   64.9519 C   0  0  0  0  0  0  0  0  0  0  0  0
   31.1466    9.0244   64.0045 C   0  0  0  0  0  0  0  0  0  0  0  0
   32.4268    8.4644   66.1291 C   0  0  0  0  0  0  0  0  0  0  0  0
   30.3077    7.9038   64.2329 C   0  0  0  0  0  0  0  0  0  0  0  0
   31.5870    7.3301   66.3661 C   0  0  0  0  0  0  0  0  0  0  0  0
   30.5022    7.0097   65.4328 C   0  0  0  0  0  0  0  0  0  0  0  0
   29.7311    5.9094   65.7227 N   0  0  0  0  0  0  0  0  0  0  0  0
   28.6531    5.3973   65.0420 C   0  0  0  0  0  0  0  0  0  0  0  0
   27.6114    6.2771   63.9973 S   0  0  0  0  0  0  0  0  0  0  0  0
   28.3367    4.1102   65.1751 N   0  0  0  0  0  0  0  0  0  0  0  0
   26.7108    4.8443   63.7308 C   0  0  0  0  0  0  0  0  0  0  0  0
   27.2454    3.7885   64.4430 C   0  0  0  0  0  0  0  0  0  0  0  0
   25.5139    4.7761   62.8434 C   0  0  0  0  0  0  0  0  0  0  0  0
   26.7578    2.5359   64.4322 N   0  0  0  0  0  0  0  0  0  0  0  0
   24.8907    3.7183   62.6897 O   0  0  0  0  0  0  0  0  0  0  0  0
   25.1612    5.9037   62.2246 N   0  0  0  0  0  0  0  0  0  0  0  0
  1  2  2  0
  1  3  2  0
  1  4  1  0
  1  5  1  0
  5  6  2  0
  5  7  1  0
  6  8  1  0
  7  9  2  0
  8 10  2  0
 10 11  1  0
 11 12  1  0
 12 13  1  0
 12 14  2  0
 13 15  1  0
 14 16  1  0
 15 17  1  0
 16 18  1  0
 17 19  2  0
 17 20  1  0
  9 10  1  0
 15 16  2  0
M  END
>  <Molecule Name>  (159) 
NYEMVPGQXLAKEH-QRLNQVTDNA-N

>  <hs_clash>  (159) 
2.0

>  <hs_total>  (159) 
96.3336976701785

>  <Total Molweight>  (159) 
313.361

>  <cLogP>  (159) 
0.4229

>  <H-Acceptors>  (159) 
8

>  <H-Donors>  (159) 
4

>  <Polar Surface Area>  (159) 
190.81

>  <Non-H Atoms>  (159) 
20

>  <sp3-Atoms>  (159) 
1

$$$$
UFUGKBGESCNADR-DXAUXPAJNA-N
     RDKit          3D

 31 34  0  0  0  0  0  0  0  0999 V2000
   25.5340    7.5421   63.2103 S   0  0  0  0  0  0  0  0  0  0  0  0
   24.0594    8.1115   62.8648 C   0  0  0  0  0  0  0  0  0  0  0  0
   25.1735    6.5119   64.4012 C   0  0  0  0  0  0  0  0  0  0  0  0
   23.1081    7.4982   63.7088 N   0  0  0  0  0  0  0  0  0  0  0  0
   23.7613    9.0847   61.8597 N   0  0  0  0  0  0  0  0  0  0  0  0
   26.2043    5.6860   65.0997 C   0  0  0  0  0  0  0  0  0  0  0  0
   23.7570    6.5349   64.6331 C   0  0  0  0  0  0  0  0  0  0  0  0
   24.6749    9.3259   60.7760 C   0  0  0  0  0  0  0  0  0  0  0  0
   27.2089    6.3044   65.7441 N   0  0  0  0  0  0  0  0  0  0  0  0
   26.1762    4.2834   65.0813 C   0  0  0  0  0  0  0  0  0  0  0  0
   23.0088    5.7315   65.6485 C   0  0  0  0  0  0  0  0  0  0  0  0
   28.1671    5.6132   66.3689 C   0  0  0  0  0  0  0  0  0  0  0  0
   25.1024    3.5206   64.3847 C   0  0  0  0  0  0  0  0  0  0  0  0
   27.1840    3.5895   65.7466 C   0  0  0  0  0  0  0  0  0  0  0  0
   28.1491    4.2742   66.3702 N   0  0  0  0  0  0  0  0  0  0  0  0
   29.2389    6.2581   67.0609 N   0  0  0  0  0  0  0  0  0  0  0  0
   24.2825    2.9346   63.8570 N   0  0  0  0  0  0  0  0  0  0  0  0
   29.6941    7.5921   66.8274 C   0  0  0  0  0  0  0  0  0  0  0  0
   30.4059    8.2442   67.8306 C   0  0  0  0  0  0  0  0  0  0  0  0
   29.4617    8.2494   65.6285 C   0  0  0  0  0  0  0  0  0  0  0  0
   30.8796    9.5326   67.6464 C   0  0  0  0  0  0  0  0  0  0  0  0
   29.9175    9.5437   65.4342 C   0  0  0  0  0  0  0  0  0  0  0  0
   31.6259   10.1854   68.7631 C   0  0  0  0  0  0  0  0  0  0  0  0
   30.6182   10.1878   66.4428 C   0  0  0  0  0  0  0  0  0  0  0  0
   31.0378   10.3605   69.8214 O   0  0  0  0  0  0  0  0  0  0  0  0
   32.9881   10.6097   68.6702 N   0  0  0  0  0  0  0  0  0  0  0  0
   33.6768   10.4278   67.5115 C   0  0  0  0  0  0  0  0  0  0  0  0
   33.5202   11.1831   69.7841 C   0  0  0  0  0  0  0  0  0  0  0  0
   35.0449   11.0181   67.6126 C   0  0  0  0  0  0  0  0  0  0  0  0
   34.9677   10.8430   69.9875 C   0  0  0  0  0  0  0  0  0  0  0  0
   35.7159   10.5268   68.7898 O   0  0  0  0  0  0  0  0  0  0  0  0
  1  2  1  0
  1  3  1  0
  2  4  2  0
  2  5  1  0
  3  6  1  0
  3  7  2  0
  5  8  1  0
  6  9  2  0
  6 10  1  0
  7 11  1  0
  9 12  1  0
 10 13  1  0
 10 14  2  0
 12 15  2  0
 12 16  1  0
 13 17  3  0
 16 18  1  0
 18 19  2  0
 18 20  1  0
 19 21  1  0
 20 22  2  0
 21 23  1  0
 21 24  2  0
 23 25  2  0
 23 26  1  0
 26 27  1  0
 26 28  1  0
 27 29  1  0
 28 30  1  0
 29 31  1  0
  4  7  1  0
 14 15  1  0
 22 24  1  0
 30 31  1  0
M  END
>  <Molecule Name>  (160) 
UFUGKBGESCNADR-DXAUXPAJNA-N

>  <hs_clash>  (160) 
1.0

>  <hs_total>  (160) 
95.69442508084161

>  <Total Molweight>  (160) 
435.511

>  <cLogP>  (160) 
3.1657

>  <H-Acceptors>  (160) 
9

>  <H-Donors>  (160) 
2

>  <Polar Surface Area>  (160) 
144.3

>  <Non-H Atoms>  (160) 
31

>  <sp3-Atoms>  (160) 
7

$$$$
NYRVLHGVDPPWJS-VUEOKQGPNA-N
     RDKit          3D

 24 26  0  0  0  0  0  0  0  0999 V2000
   25.7467    8.0820   63.4016 S   0  0  0  0  0  0  0  0  0  0  0  0
   24.8070    7.9150   61.9676 C   0  0  0  0  0  0  0  0  0  0  0  0
   25.2880    6.4825   63.9834 C   0  0  0  0  0  0  0  0  0  0  0  0
   23.7845    7.1067   62.2829 N   0  0  0  0  0  0  0  0  0  0  0  0
   25.2238    8.3344   60.6561 N   0  0  0  0  0  0  0  0  0  0  0  0
   26.2796    5.5009   64.5376 C   0  0  0  0  0  0  0  0  0  0  0  0
   23.9727    6.2724   63.3933 C   0  0  0  0  0  0  0  0  0  0  0  0
   24.0940    8.4245   59.7815 C   0  0  0  0  0  0  0  0  0  0  0  0
   27.3789    6.0134   65.1723 N   0  0  0  0  0  0  0  0  0  0  0  0
   26.1582    4.0975   64.4590 C   0  0  0  0  0  0  0  0  0  0  0  0
   22.8767    5.4783   64.0342 C   0  0  0  0  0  0  0  0  0  0  0  0
   28.4122    5.3526   65.7612 C   0  0  0  0  0  0  0  0  0  0  0  0
   25.0492    3.3654   63.7857 C   0  0  0  0  0  0  0  0  0  0  0  0
   27.2332    3.4226   65.0781 C   0  0  0  0  0  0  0  0  0  0  0  0
   28.2676    4.0447   65.6735 N   0  0  0  0  0  0  0  0  0  0  0  0
   29.5464    6.0048   66.3520 N   0  0  0  0  0  0  0  0  0  0  0  0
   24.2080    2.7864   63.2802 N   0  0  0  0  0  0  0  0  0  0  0  0
   30.0440    7.2525   65.8134 C   0  0  0  0  0  0  0  0  0  0  0  0
   29.5255    7.7853   64.6788 C   0  0  0  0  0  0  0  0  0  0  0  0
   31.1472    7.9778   66.5317 C   0  0  0  0  0  0  0  0  0  0  0  0
   30.0522    9.1004   64.1401 C   0  0  0  0  0  0  0  0  0  0  0  0
   31.6219    9.1720   66.0394 C   0  0  0  0  0  0  0  0  0  0  0  0
   29.5306    9.6418   62.9885 O   0  0  0  0  0  0  0  0  0  0  0  0
   31.0515    9.7496   64.7971 C   0  0  0  0  0  0  0  0  0  0  0  0
  1  2  1  0
  1  3  1  0
  2  4  2  0
  2  5  1  0
  3  6  1  0
  3  7  2  0
  5  8  1  0
  6  9  2  0
  6 10  1  0
  7 11  1  0
  9 12  1  0
 10 13  1  0
 10 14  2  0
 12 15  2  0
 12 16  1  0
 13 17  3  0
 16 18  1  0
 18 19  2  0
 18 20  1  0
 19 21  1  0
 20 22  2  0
 21 23  1  0
 21 24  2  0
  4  7  1  0
 14 15  1  0
 22 24  1  0
M  END
>  <Molecule Name>  (161) 
NYRVLHGVDPPWJS-VUEOKQGPNA-N

>  <hs_clash>  (161) 
0.0

>  <hs_total>  (161) 
95.68743193710591

>  <Total Molweight>  (161) 
338.394

>  <cLogP>  (161) 
3.1457

>  <H-Acceptors>  (161) 
7

>  <H-Donors>  (161) 
3

>  <Polar Surface Area>  (161) 
134.99

>  <Non-H Atoms>  (161) 
24

>  <sp3-Atoms>  (161) 
3

$$$$
KMEQMLWVPHUCFT-XWKXFZRBNA-N
     RDKit          3D

 17 18  0  0  0  0  0  0  0  0999 V2000
   27.3603    7.9310   62.6399 S   0  0  0  0  0  0  0  0  0  0  0  0
   26.8467    6.2999   62.9514 C   0  0  0  0  0  0  0  0  0  0  0  0
   26.1219    8.0960   61.4784 C   0  0  0  0  0  0  0  0  0  0  0  0
   27.6060    5.5632   63.9168 C   0  0  0  0  0  0  0  0  0  0  0  0
   25.7659    6.0044   62.1197 C   0  0  0  0  0  0  0  0  0  0  0  0
   25.3518    7.0254   61.2948 N   0  0  0  0  0  0  0  0  0  0  0  0
   25.9515    9.4022   60.7312 C   0  0  0  0  0  0  0  0  0  0  0  0
   28.4815    6.2231   64.6861 N   0  0  0  0  0  0  0  0  0  0  0  0
   27.4633    4.1616   64.0944 C   0  0  0  0  0  0  0  0  0  0  0  0
   24.9861    4.6963   62.0421 C   0  0  0  0  0  0  0  0  0  0  0  0
   29.1796    5.5604   65.5845 C   0  0  0  0  0  0  0  0  0  0  0  0
   28.2739    3.5421   65.0656 C   0  0  0  0  0  0  0  0  0  0  0  0
   29.1267    4.2511   65.7931 N   0  0  0  0  0  0  0  0  0  0  0  0
   30.0892    6.3797   66.3336 N   0  0  0  0  0  0  0  0  0  0  0  0
   31.1197    7.2381   65.8614 C   0  0  0  0  0  0  0  0  0  0  0  0
   31.8514    7.9004   66.6573 N   0  0  0  0  0  0  0  0  0  0  0  0
   31.8202    7.9266   67.9700 O   0  0  0  0  0  0  0  0  0  0  0  0
  1  2  1  0
  1  3  1  0
  2  4  1  0
  2  5  2  0
  3  6  2  0
  3  7  1  0
  4  8  2  0
  4  9  1  0
  5 10  1  0
  8 11  1  0
  9 12  2  0
 11 13  2  0
 11 14  1  0
 14 15  1  0
 15 16  1  0
 16 17  2  0
  5  6  1  0
 12 13  1  0
M  END
>  <Molecule Name>  (162) 
KMEQMLWVPHUCFT-XWKXFZRBNA-N

>  <hs_clash>  (162) 
0.0

>  <hs_total>  (162) 
95.54664261677777

>  <Total Molweight>  (162) 
249.297

>  <cLogP>  (162) 
0.9031

>  <H-Acceptors>  (162) 
6

>  <H-Donors>  (162) 
1

>  <Polar Surface Area>  (162) 
108.37

>  <Non-H Atoms>  (162) 
17

>  <sp3-Atoms>  (162) 
3

$$$$
GXZJLHQMNOLIAB-VCHYOVAHNA-N
     RDKit          3D

 23 25  0  0  0  0  0  0  0  0999 V2000
   33.5189   10.9062   65.0304 S   0  0  0  0  0  0  0  0  0  0  0  0
   34.4277   10.4458   64.0342 O   0  0  0  0  0  0  0  0  0  0  0  0
   34.0221   11.0666   66.3618 O   0  0  0  0  0  0  0  0  0  0  0  0
   32.9586   12.4060   64.6312 N   0  0  0  0  0  0  0  0  0  0  0  0
   32.1809    9.7720   65.0779 C   0  0  0  0  0  0  0  0  0  0  0  0
   32.2750   12.8380   63.4206 C   0  0  0  0  0  0  0  0  0  0  0  0
   31.3354    9.6695   63.8836 C   0  0  0  0  0  0  0  0  0  0  0  0
   32.0678    8.7905   66.1886 C   0  0  0  0  0  0  0  0  0  0  0  0
   30.3484    8.6158   63.7947 C   0  0  0  0  0  0  0  0  0  0  0  0
   31.0688    7.7172   66.1085 C   0  0  0  0  0  0  0  0  0  0  0  0
   30.1966    7.6272   64.9177 C   0  0  0  0  0  0  0  0  0  0  0  0
   29.3040    6.6147   64.9399 N   0  0  0  0  0  0  0  0  0  0  0  0
   28.0252    6.5886   64.2135 C   0  0  0  0  0  0  0  0  0  0  0  0
   27.2575    5.4987   64.1030 C   0  0  0  0  0  0  0  0  0  0  0  0
   27.4823    4.1761   64.7763 C   0  0  0  0  0  0  0  0  0  0  0  0
   26.1063    5.3039   63.2673 C   0  0  0  0  0  0  0  0  0  0  0  0
   28.4450    3.9418   65.5191 O   0  0  0  0  0  0  0  0  0  0  0  0
   26.5139    3.3139   64.3766 N   0  0  0  0  0  0  0  0  0  0  0  0
   25.6866    3.9269   63.4640 C   0  0  0  0  0  0  0  0  0  0  0  0
   25.3862    6.2186   62.3270 C   0  0  0  0  0  0  0  0  0  0  0  0
   24.5307    3.3918   62.7197 C   0  0  0  0  0  0  0  0  0  0  0  0
   24.2074    5.6910   61.5855 C   0  0  0  0  0  0  0  0  0  0  0  0
   23.7676    4.2911   61.8032 C   0  0  0  0  0  0  0  0  0  0  0  0
  1  2  2  0
  1  3  2  0
  1  4  1  0
  1  5  1  0
  4  6  1  0
  5  7  2  0
  5  8  1  0
  7  9  1  0
  8 10  2  0
  9 11  2  0
 11 12  1  0
 12 13  2  0
 13 14  1  0
 14 15  2  0
 14 16  1  0
 15 17  1  0
 15 18  1  0
 16 19  2  0
 16 20  1  0
 19 21  1  0
 20 22  2  0
 21 23  2  0
 10 11  1  0
 18 19  1  0
 22 23  1  0
M  END
>  <Molecule Name>  (163) 
GXZJLHQMNOLIAB-VCHYOVAHNA-N

>  <hs_clash>  (163) 
23.0

>  <hs_total>  (163) 
94.81173939913258

>  <Total Molweight>  (163) 
329.379

>  <cLogP>  (163) 
2.2039

>  <H-Acceptors>  (163) 
6

>  <H-Donors>  (163) 
3

>  <Polar Surface Area>  (163) 
102.93

>  <Non-H Atoms>  (163) 
23

>  <sp3-Atoms>  (163) 
3

$$$$
WUGJIPFLBOATGL-UHFFFAOYNA-N
     RDKit          3D

 28 31  0  0  0  0  0  0  0  0999 V2000
   22.4293    6.6659   62.2245 F   0  0  0  0  0  0  0  0  0  0  0  0
   23.3770    7.0973   61.3913 C   0  0  0  0  0  0  0  0  0  0  0  0
   24.5757    6.3319   61.1894 C   0  0  0  0  0  0  0  0  0  0  0  0
   23.1326    8.3525   60.7385 C   0  0  0  0  0  0  0  0  0  0  0  0
   25.5540    6.9175   60.2362 C   0  0  0  0  0  0  0  0  0  0  0  0
   24.7504    4.9942   61.9301 C   0  0  0  0  0  0  0  0  0  0  0  0
   24.1045    8.8816   59.8290 C   0  0  0  0  0  0  0  0  0  0  0  0
   26.7222    6.3243   59.9481 F   0  0  0  0  0  0  0  0  0  0  0  0
   25.3217    8.1727   59.5793 C   0  0  0  0  0  0  0  0  0  0  0  0
   24.0311    4.0032   61.6455 O   0  0  0  0  0  0  0  0  0  0  0  0
   25.8086    4.8873   63.0203 C   0  0  0  0  0  0  0  0  0  0  0  0
   26.6690    5.9644   63.3964 C   0  0  0  0  0  0  0  0  0  0  0  0
   25.9907    3.6506   63.7305 C   0  0  0  0  0  0  0  0  0  0  0  0
   27.6118    5.8750   64.3869 N   0  0  0  0  0  0  0  0  0  0  0  0
   26.9717    3.5295   64.7707 C   0  0  0  0  0  0  0  0  0  0  0  0
   28.5690    6.7602   64.9190 C   0  0  0  0  0  0  0  0  0  0  0  0
   27.7810    4.6273   65.0789 C   0  0  0  0  0  0  0  0  0  0  0  0
   29.2288    6.0232   65.9324 C   0  0  0  0  0  0  0  0  0  0  0  0
   28.9084    8.1726   64.6449 C   0  0  0  0  0  0  0  0  0  0  0  0
   28.7587    4.7656   66.0035 N   0  0  0  0  0  0  0  0  0  0  0  0
   30.3042    6.5268   66.7865 N   0  0  0  0  0  0  0  0  0  0  0  0
   29.8298    8.6766   65.3222 O   0  0  0  0  0  0  0  0  0  0  0  0
   28.2674    9.0270   63.6144 C   0  0  0  0  0  0  0  0  0  0  0  0
   26.9987    9.6666   63.8929 C   0  0  0  0  0  0  0  0  0  0  0  0
   28.8983    9.2219   62.3374 C   0  0  0  0  0  0  0  0  0  0  0  0
   26.3719   10.5009   62.8933 C   0  0  0  0  0  0  0  0  0  0  0  0
   28.2656   10.0542   61.3507 C   0  0  0  0  0  0  0  0  0  0  0  0
   27.0149   10.6908   61.6313 C   0  0  0  0  0  0  0  0  0  0  0  0
  1  2  1  0
  2  3  2  0
  2  4  1  0
  3  5  1  0
  3  6  1  0
  4  7  2  0
  5  8  1  0
  5  9  2  0
  6 10  2  0
  6 11  1  0
 11 12  2  0
 11 13  1  0
 12 14  1  0
 13 15  2  0
 14 16  1  0
 14 17  1  0
 16 18  2  0
 16 19  1  0
 17 20  2  0
 18 21  1  0
 19 22  2  0
 19 23  1  0
 23 24  2  0
 23 25  1  0
 24 26  1  0
 25 27  2  0
 26 28  2  0
  7  9  1  0
 15 17  1  0
 18 20  1  0
 27 28  1  0
M  END
>  <Molecule Name>  (164) 
WUGJIPFLBOATGL-UHFFFAOYNA-N

>  <hs_clash>  (164) 
0.0

>  <hs_total>  (164) 
93.71731141049518

>  <Total Molweight>  (164) 
377.349

>  <cLogP>  (164) 
2.7918

>  <H-Acceptors>  (164) 
5

>  <H-Donors>  (164) 
1

>  <Polar Surface Area>  (164) 
77.46

>  <Non-H Atoms>  (164) 
28

>  <sp3-Atoms>  (164) 
0

$$$$
RUUOIINPNMNPIU-GJCIOOLPNA-N
     RDKit          3D

 27 30  0  0  0  0  0  0  0  0999 V2000
   32.5383   11.1811   66.4633 O   0  0  0  0  0  0  0  0  0  0  0  0
   31.5707   10.8767   65.7707 C   0  0  0  0  0  0  0  0  0  0  0  0
   30.9570   11.8025   65.0197 N   0  0  0  0  0  0  0  0  0  0  0  0
   31.0496    9.4548   65.7778 C   0  0  0  0  0  0  0  0  0  0  0  0
   30.8053    8.8128   66.9976 C   0  0  0  0  0  0  0  0  0  0  0  0
   30.7941    8.7566   64.5982 C   0  0  0  0  0  0  0  0  0  0  0  0
   30.3102    7.5060   67.0525 C   0  0  0  0  0  0  0  0  0  0  0  0
   30.3161    7.4405   64.6538 C   0  0  0  0  0  0  0  0  0  0  0  0
   30.0613    6.8019   65.8801 C   0  0  0  0  0  0  0  0  0  0  0  0
   29.5724    5.5306   65.9575 N   0  0  0  0  0  0  0  0  0  0  0  0
   28.3537    5.2381   65.4217 C   0  0  0  0  0  0  0  0  0  0  0  0
   27.6319    6.2608   64.9133 N   0  0  0  0  0  0  0  0  0  0  0  0
   27.8693    3.9668   65.3916 N   0  0  0  0  0  0  0  0  0  0  0  0
   26.4374    6.0910   64.3403 C   0  0  0  0  0  0  0  0  0  0  0  0
   26.6568    3.7163   64.8498 C   0  0  0  0  0  0  0  0  0  0  0  0
   25.7550    7.1428   63.8253 O   0  0  0  0  0  0  0  0  0  0  0  0
   25.8551    4.7420   64.2847 C   0  0  0  0  0  0  0  0  0  0  0  0
   26.0026    2.5154   64.7207 N   0  0  0  0  0  0  0  0  0  0  0  0
   26.3261    8.4549   63.7653 C   0  0  0  0  0  0  0  0  0  0  0  0
   24.6842    4.1871   63.7871 N   0  0  0  0  0  0  0  0  0  0  0  0
   24.8289    2.8567   64.0781 C   0  0  0  0  0  0  0  0  0  0  0  0
   25.5439    9.2332   62.7094 C   0  0  0  0  0  0  0  0  0  0  0  0
   25.8244   10.7218   62.8479 C   0  0  0  0  0  0  0  0  0  0  0  0
   25.9087    8.6740   61.3397 C   0  0  0  0  0  0  0  0  0  0  0  0
   25.1949   11.4630   61.6939 C   0  0  0  0  0  0  0  0  0  0  0  0
   25.4235    9.5253   60.1801 C   0  0  0  0  0  0  0  0  0  0  0  0
   25.8415   10.9715   60.4092 C   0  0  0  0  0  0  0  0  0  0  0  0
  1  2  2  0
  2  3  1  0
  2  4  1  0
  4  5  2  0
  4  6  1  0
  5  7  1  0
  6  8  2  0
  7  9  2  0
  9 10  1  0
 10 11  1  0
 11 12  2  0
 11 13  1  0
 12 14  1  0
 13 15  2  0
 14 16  1  0
 14 17  2  0
 15 18  1  0
 16 19  1  0
 17 20  1  0
 18 21  1  0
 19 22  1  0
 22 23  1  0
 22 24  1  0
 23 25  1  0
 24 26  1  0
 25 27  1  0
  8  9  1  0
 15 17  1  0
 20 21  2  0
 26 27  1  0
M  END
>  <Molecule Name>  (165) 
RUUOIINPNMNPIU-GJCIOOLPNA-N

>  <hs_clash>  (165) 
0.0

>  <hs_total>  (165) 
93.61154764610616

>  <Total Molweight>  (165) 
366.424

>  <cLogP>  (165) 
2.9979

>  <H-Acceptors>  (165) 
8

>  <H-Donors>  (165) 
3

>  <Polar Surface Area>  (165) 
118.81

>  <Non-H Atoms>  (165) 
27

>  <sp3-Atoms>  (165) 
8

$$$$
UHCCZPSJWZLRKI-JGEMXZPPNA-N
     RDKit          3D

 25 27  0  0  0  0  0  0  0  0999 V2000
   33.6046   10.8785   64.9576 S   0  0  0  0  0  0  0  0  0  0  0  0
   34.3468   10.8658   66.2623 O   0  0  0  0  0  0  0  0  0  0  0  0
   34.4587   10.5237   63.7871 O   0  0  0  0  0  0  0  0  0  0  0  0
   32.7934   12.2451   64.6696 N   0  0  0  0  0  0  0  0  0  0  0  0
   32.3549    9.6840   65.0369 C   0  0  0  0  0  0  0  0  0  0  0  0
   31.9834   12.8119   65.5872 C   0  0  0  0  0  0  0  0  0  0  0  0
   31.5280    9.5401   63.9163 C   0  0  0  0  0  0  0  0  0  0  0  0
   32.2075    8.8497   66.1590 C   0  0  0  0  0  0  0  0  0  0  0  0
   31.2663   13.8787   65.2531 N   0  0  0  0  0  0  0  0  0  0  0  0
   31.9009   12.3617   66.8435 N   0  0  0  0  0  0  0  0  0  0  0  0
   30.5311    8.5477   63.8851 C   0  0  0  0  0  0  0  0  0  0  0  0
   31.1968    7.8783   66.1169 C   0  0  0  0  0  0  0  0  0  0  0  0
   30.3291    7.7388   65.0234 C   0  0  0  0  0  0  0  0  0  0  0  0
   29.3944    6.7682   65.0267 N   0  0  0  0  0  0  0  0  0  0  0  0
   28.3064    6.7542   64.2366 C   0  0  0  0  0  0  0  0  0  0  0  0
   27.4218    5.6682   64.2012 C   0  0  0  0  0  0  0  0  0  0  0  0
   27.6428    4.4508   64.8499 C   0  0  0  0  0  0  0  0  0  0  0  0
   26.3394    5.4537   63.3189 C   0  0  0  0  0  0  0  0  0  0  0  0
   28.5348    4.2893   65.6947 O   0  0  0  0  0  0  0  0  0  0  0  0
   26.7293    3.5484   64.4768 N   0  0  0  0  0  0  0  0  0  0  0  0
   25.9094    4.1342   63.5451 C   0  0  0  0  0  0  0  0  0  0  0  0
   25.6301    6.2892   62.4417 C   0  0  0  0  0  0  0  0  0  0  0  0
   24.8289    3.6123   62.8288 C   0  0  0  0  0  0  0  0  0  0  0  0
   24.5494    5.7574   61.7226 C   0  0  0  0  0  0  0  0  0  0  0  0
   24.1074    4.4369   61.9399 C   0  0  0  0  0  0  0  0  0  0  0  0
  1  2  2  0
  1  3  2  0
  1  4  1  0
  1  5  1  0
  4  6  1  0
  5  7  2  0
  5  8  1  0
  6  9  2  0
  6 10  1  0
  7 11  1  0
  8 12  2  0
 11 13  2  0
 13 14  1  0
 14 15  2  0
 15 16  1  0
 16 17  2  0
 16 18  1  0
 17 19  1  0
 17 20  1  0
 18 21  2  0
 18 22  1  0
 21 23  1  0
 22 24  2  0
 23 25  2  0
 12 13  1  0
 20 21  1  0
 24 25  1  0
M  END
>  <Molecule Name>  (166) 
UHCCZPSJWZLRKI-JGEMXZPPNA-N

>  <hs_clash>  (166) 
0.0

>  <hs_total>  (166) 
91.99392857365999

>  <Total Molweight>  (166) 
357.393

>  <cLogP>  (166) 
1.2391

>  <H-Acceptors>  (166) 
8

>  <H-Donors>  (166) 
5

>  <Polar Surface Area>  (166) 
152.8

>  <Non-H Atoms>  (166) 
25

>  <sp3-Atoms>  (166) 
2

$$$$
BKOYUSKBPMSUBK-WRDIIZFPNA-O
     RDKit          3D

 30 33  0  0  0  0  0  0  0  0999 V2000
   25.4940    7.4578   61.7703 S   0  0  0  0  0  0  0  0  0  0  0  0
   23.8863    7.8571   61.2519 C   0  0  0  0  0  0  0  0  0  0  0  0
   25.0193    6.3757   63.0184 C   0  0  0  0  0  0  0  0  0  0  0  0
   23.0409    7.1645   62.0329 N   0  0  0  0  0  0  0  0  0  0  0  0
   23.5418    8.7573   60.1883 N   0  0  0  0  0  0  0  0  0  0  0  0
   25.9055    5.6862   63.8482 C   0  0  0  0  0  0  0  0  0  0  0  0
   23.6067    6.3751   62.9719 C   0  0  0  0  0  0  0  0  0  0  0  0
   24.5891    9.4244   59.4702 C   0  0  0  0  0  0  0  0  0  0  0  0
   26.8863    6.3953   64.4772 N   0  0  0  0  0  0  0  0  0  0  0  0
   25.8410    4.2848   64.0355 C   0  0  0  0  0  0  0  0  0  0  0  0
   22.7331    5.5384   63.9284 C   0  0  0  0  0  0  0  0  0  0  0  0
   27.7812    5.7929   65.2674 C   0  0  0  0  0  0  0  0  0  0  0  0
   24.7989    3.4605   63.3669 C   0  0  0  0  0  0  0  0  0  0  0  0
   26.7709    3.6772   64.8630 C   0  0  0  0  0  0  0  0  0  0  0  0
   27.7301    4.4431   65.4744 N   0  0  0  0  0  0  0  0  0  0  0  0
   28.8216    6.5902   65.9463 N   0  0  0  0  0  0  0  0  0  0  0  0
   24.0026    2.8314   62.8591 N   0  0  0  0  0  0  0  0  0  0  0  0
   29.3574    7.7816   65.4065 C   0  0  0  0  0  0  0  0  0  0  0  0
   28.6374    8.5553   64.5042 C   0  0  0  0  0  0  0  0  0  0  0  0
   30.6700    8.1951   65.8126 C   0  0  0  0  0  0  0  0  0  0  0  0
   29.2020    9.7557   63.9784 C   0  0  0  0  0  0  0  0  0  0  0  0
   31.2279    9.3708   65.2996 C   0  0  0  0  0  0  0  0  0  0  0  0
   28.4405   10.5888   63.0205 N   0  0  0  0  0  0  0  0  0  0  0  0
   30.4976   10.1548   64.3829 C   0  0  0  0  0  0  0  0  0  0  0  0
   28.4263    9.9362   61.7407 C   0  0  0  0  0  0  0  0  0  0  0  0
   27.2919   11.4201   63.2833 C   0  0  0  0  0  0  0  0  0  0  0  0
   28.3416   10.8695   60.5622 C   0  0  0  0  0  0  0  0  0  0  0  0
   27.5486   12.8562   62.9660 C   0  0  0  0  0  0  0  0  0  0  0  0
   27.4175   11.9545   60.7142 N   0  0  0  0  0  0  0  0  0  0  0  0
   27.9191   13.0292   61.5231 C   0  0  0  0  0  0  0  0  0  0  0  0
  1  2  1  0
  1  3  1  0
  2  4  2  0
  2  5  1  0
  3  6  1  0
  3  7  2  0
  5  8  1  0
  6  9  2  0
  6 10  1  0
  7 11  1  0
  9 12  1  0
 10 13  1  0
 10 14  2  0
 12 15  2  0
 12 16  1  0
 13 17  3  0
 16 18  1  0
 18 19  2  0
 18 20  1  0
 19 21  1  0
 20 22  2  0
 21 23  1  0
 21 24  2  0
 23 25  1  0
 23 26  1  0
 25 27  1  0
 26 28  1  0
 27 29  1  0
 28 30  1  0
  4  7  1  0
 14 15  1  0
 22 24  1  0
 29 30  1  0
M  CHG  1  29   1
M  END
>  <Molecule Name>  (167) 
BKOYUSKBPMSUBK-WRDIIZFPNA-O

>  <hs_clash>  (167) 
0.0

>  <hs_total>  (167) 
89.06600182418505

>  <Total Molweight>  (167) 
421.552

>  <cLogP>  (167) 
3.0978

>  <H-Acceptors>  (167) 
8

>  <H-Donors>  (167) 
3

>  <Polar Surface Area>  (167) 
134.61

>  <Non-H Atoms>  (167) 
30

>  <sp3-Atoms>  (167) 
8

$$$$
MIGKKDVNMPOUSL-QGWGMMNFNA-O
     RDKit          3D

 27 29  0  0  0  0  0  0  0  0999 V2000
   33.6903   10.9346   64.9898 S   0  0  0  0  0  0  0  0  0  0  0  0
   34.4193   10.7025   63.7790 O   0  0  0  0  0  0  0  0  0  0  0  0
   34.3823   10.8869   66.2423 O   0  0  0  0  0  0  0  0  0  0  0  0
   33.0263   12.4023   64.8641 N   0  0  0  0  0  0  0  0  0  0  0  0
   32.3913    9.7581   65.0376 C   0  0  0  0  0  0  0  0  0  0  0  0
   31.7193   12.7503   65.4394 C   0  0  0  0  0  0  0  0  0  0  0  0
   32.2394    8.9475   66.1502 C   0  0  0  0  0  0  0  0  0  0  0  0
   31.5742    9.6166   63.9360 C   0  0  0  0  0  0  0  0  0  0  0  0
   31.6407   12.6388   66.9523 C   0  0  0  0  0  0  0  0  0  0  0  0
   31.2637    7.9683   66.1448 C   0  0  0  0  0  0  0  0  0  0  0  0
   30.5818    8.6596   63.9498 C   0  0  0  0  0  0  0  0  0  0  0  0
   31.3036   13.9298   67.6371 N   0  0  0  0  0  0  0  0  0  0  0  0
   30.4089    7.8421   65.0603 C   0  0  0  0  0  0  0  0  0  0  0  0
   30.8897   13.7124   69.0489 C   0  0  0  0  0  0  0  0  0  0  0  0
   32.4229   14.9098   67.5700 C   0  0  0  0  0  0  0  0  0  0  0  0
   29.3950    6.8573   65.0670 N   0  0  0  0  0  0  0  0  0  0  0  0
   28.3848    6.7794   64.2158 C   0  0  0  0  0  0  0  0  0  0  0  0
   27.5110    5.7202   64.1616 C   0  0  0  0  0  0  0  0  0  0  0  0
   27.7026    4.4634   64.9725 C   0  0  0  0  0  0  0  0  0  0  0  0
   26.3637    5.5055   63.3216 C   0  0  0  0  0  0  0  0  0  0  0  0
   28.5699    4.3068   65.8466 O   0  0  0  0  0  0  0  0  0  0  0  0
   26.7539    3.5992   64.5426 N   0  0  0  0  0  0  0  0  0  0  0  0
   25.9352    4.1820   63.5525 C   0  0  0  0  0  0  0  0  0  0  0  0
   25.6658    6.2920   62.4062 C   0  0  0  0  0  0  0  0  0  0  0  0
   24.8857    3.6251   62.8426 C   0  0  0  0  0  0  0  0  0  0  0  0
   24.5637    5.7587   61.7424 C   0  0  0  0  0  0  0  0  0  0  0  0
   24.1899    4.4277   61.9411 C   0  0  0  0  0  0  0  0  0  0  0  0
  1  2  2  0
  1  3  2  0
  1  4  1  0
  1  5  1  0
  4  6  1  0
  5  7  2  0
  5  8  1  0
  6  9  1  0
  7 10  1  0
  8 11  2  0
  9 12  1  0
 10 13  2  0
 12 14  1  0
 12 15  1  0
 13 16  1  0
 16 17  2  0
 17 18  1  0
 18 19  2  0
 18 20  1  0
 19 21  1  0
 19 22  1  0
 20 23  2  0
 20 24  1  0
 23 25  1  0
 24 26  2  0
 25 27  2  0
 11 13  1  0
 22 23  1  0
 26 27  1  0
M  CHG  1  12   1
M  END
>  <Molecule Name>  (168) 
MIGKKDVNMPOUSL-QGWGMMNFNA-O

>  <hs_clash>  (168) 
0.0

>  <hs_total>  (168) 
88.25893675729006

>  <Total Molweight>  (168) 
387.483

>  <cLogP>  (168) 
0.5374

>  <H-Acceptors>  (168) 
7

>  <H-Donors>  (168) 
4

>  <Polar Surface Area>  (168) 
107.37

>  <Non-H Atoms>  (168) 
27

>  <sp3-Atoms>  (168) 
7

$$$$
IFKSVNMHRIABRM-HVXXBKQBNA-N
     RDKit          3D

 25 26  0  0  0  0  0  0  0  0999 V2000
   23.7654    6.9388   63.0404 O   0  0  0  0  0  0  0  0  0  0  0  0
   24.7785    7.7575   62.8256 N   0  0  0  0  0  0  0  0  0  0  0  0
   24.5405    8.8730   62.1805 O   0  0  0  0  0  0  0  0  0  0  0  0
   25.9732    7.4628   63.2508 C   0  0  0  0  0  0  0  0  0  0  0  0
   27.0805    8.3847   63.1302 C   0  0  0  0  0  0  0  0  0  0  0  0
   26.2024    6.1916   63.8605 C   0  0  0  0  0  0  0  0  0  0  0  0
   26.9114    9.5425   62.5917 N   0  0  0  0  0  0  0  0  0  0  0  0
   28.3745    8.0072   63.6194 C   0  0  0  0  0  0  0  0  0  0  0  0
   27.4932    5.8134   64.3507 C   0  0  0  0  0  0  0  0  0  0  0  0
   27.9543   10.1867   61.7502 C   0  0  0  0  0  0  0  0  0  0  0  0
   28.6005    6.7312   64.2301 C   0  0  0  0  0  0  0  0  0  0  0  0
   27.6401    4.5694   64.9291 C   0  0  0  0  0  0  0  0  0  0  0  0
   28.2277   11.5883   62.2854 C   0  0  0  0  0  0  0  0  0  0  0  0
   29.7822    6.3914   64.6749 N   0  0  0  0  0  0  0  0  0  0  0  0
   28.4836    4.3735   65.7719 O   0  0  0  0  0  0  0  0  0  0  0  0
   26.8218    3.5346   64.5531 N   0  0  0  0  0  0  0  0  0  0  0  0
   29.7180   11.7550   62.5343 C   0  0  0  0  0  0  0  0  0  0  0  0
   31.0472    7.1159   64.3850 C   0  0  0  0  0  0  0  0  0  0  0  0
   29.9163   12.5821   63.6557 O   0  0  0  0  0  0  0  0  0  0  0  0
   31.2923    8.2150   65.4002 C   0  0  0  0  0  0  0  0  0  0  0  0
   31.7368    9.4780   64.9857 C   0  0  0  0  0  0  0  0  0  0  0  0
   31.0764    8.0132   66.7940 C   0  0  0  0  0  0  0  0  0  0  0  0
   31.9737   10.5192   65.8596 N   0  0  0  0  0  0  0  0  0  0  0  0
   31.3076    9.0626   67.7137 C   0  0  0  0  0  0  0  0  0  0  0  0
   31.7536   10.2931   67.2032 C   0  0  0  0  0  0  0  0  0  0  0  0
  1  2  2  0
  2  3  1  0
  2  4  1  0
  4  5  2  0
  4  6  1  0
  5  7  1  0
  5  8  1  0
  6  9  2  0
  7 10  1  0
  8 11  2  0
  9 12  1  0
 10 13  1  0
 11 14  1  0
 12 15  2  0
 12 16  1  0
 13 17  1  0
 14 18  1  0
 17 19  1  0
 18 20  1  0
 20 21  2  0
 20 22  1  0
 21 23  1  0
 22 24  2  0
 23 25  2  0
  9 11  1  0
 24 25  1  0
M  CHG  2   2   1   3  -1
M  END
>  <Molecule Name>  (169) 
IFKSVNMHRIABRM-HVXXBKQBNA-N

>  <hs_clash>  (169) 
0.0

>  <hs_total>  (169) 
88.08571134451654

>  <Total Molweight>  (169) 
345.358

>  <cLogP>  (169) 
-0.5295

>  <H-Acceptors>  (169) 
9

>  <H-Donors>  (169) 
4

>  <Polar Surface Area>  (169) 
146.09

>  <Non-H Atoms>  (169) 
25

>  <sp3-Atoms>  (169) 
6

$$$$
FJJJERLTHDXEPT-SBTPUNAANA-O
     RDKit          3D

 24 26  0  0  0  0  0  0  0  0999 V2000
   31.3789   10.8346   64.6499 S   0  0  0  0  0  0  0  0  0  0  0  0
   32.3226   10.9551   65.7253 O   0  0  0  0  0  0  0  0  0  0  0  0
   32.0825   10.6854   63.4064 O   0  0  0  0  0  0  0  0  0  0  0  0
   30.4628   12.1473   64.5948 N   0  0  0  0  0  0  0  0  0  0  0  0
   30.3716    9.4159   64.9055 C   0  0  0  0  0  0  0  0  0  0  0  0
   29.8921   12.6591   63.3869 C   0  0  0  0  0  0  0  0  0  0  0  0
   30.6419    8.4227   65.8415 C   0  0  0  0  0  0  0  0  0  0  0  0
   29.2802    9.3225   64.0520 C   0  0  0  0  0  0  0  0  0  0  0  0
   29.7909    7.3264   65.9508 C   0  0  0  0  0  0  0  0  0  0  0  0
   28.4413    8.2228   64.1623 C   0  0  0  0  0  0  0  0  0  0  0  0
   28.6894    7.2298   65.1028 C   0  0  0  0  0  0  0  0  0  0  0  0
   27.7086    6.0970   65.0523 C   0  0  0  0  0  0  0  0  0  0  0  0
   26.6794    6.0810   64.1497 O   0  0  0  0  0  0  0  0  0  0  0  0
   27.6590    4.9197   65.7889 C   0  0  0  0  0  0  0  0  0  0  0  0
   25.9809    4.9134   64.2744 C   0  0  0  0  0  0  0  0  0  0  0  0
   26.5864    4.1840   65.2950 C   0  0  0  0  0  0  0  0  0  0  0  0
   24.7993    4.5256   63.4654 C   0  0  0  0  0  0  0  0  0  0  0  0
   24.2900    5.2998   62.4955 C   0  0  0  0  0  0  0  0  0  0  0  0
   24.8622    6.7858   62.0210 S   0  0  0  0  0  0  0  0  0  0  0  0
   23.1893    5.0295   61.6874 C   0  0  0  0  0  0  0  0  0  0  0  0
   23.7178    7.0561   60.8473 C   0  0  0  0  0  0  0  0  0  0  0  0
   22.5047    4.0103   61.7144 O   0  0  0  0  0  0  0  0  0  0  0  0
   22.9185    5.9944   60.8122 N   0  0  0  0  0  0  0  0  0  0  0  0
   23.6168    8.0799   60.1037 N   0  0  0  0  0  0  0  0  0  0  0  0
  1  2  2  0
  1  3  2  0
  1  4  1  0
  1  5  1  0
  4  6  1  0
  5  7  2  0
  5  8  1  0
  7  9  1  0
  8 10  2  0
  9 11  2  0
 11 12  1  0
 12 13  1  0
 12 14  2  0
 13 15  1  0
 14 16  1  0
 15 17  1  0
 17 18  2  0
 18 19  1  0
 18 20  1  0
 19 21  1  0
 20 22  2  0
 20 23  1  0
 21 24  2  0
 10 11  1  0
 15 16  2  0
 21 23  1  0
M  CHG  1  24   1
M  END
>  <Molecule Name>  (170) 
FJJJERLTHDXEPT-SBTPUNAANA-O

>  <hs_clash>  (170) 
0.0

>  <hs_total>  (170) 
87.69879708384858

>  <Total Molweight>  (170) 
364.425

>  <cLogP>  (170) 
1.7371

>  <H-Acceptors>  (170) 
7

>  <H-Donors>  (170) 
3

>  <Polar Surface Area>  (170) 
147.68

>  <Non-H Atoms>  (170) 
24

>  <sp3-Atoms>  (170) 
3

$$$$
FVFVVRPJERUECT-LMJMLDNBNA-N
     RDKit          3D

 18 19  0  0  0  0  0  0  0  0999 V2000
   33.2053   10.8057   64.8495 S   0  0  0  0  0  0  0  0  0  0  0  0
   34.1774   10.2388   63.9710 O   0  0  0  0  0  0  0  0  0  0  0  0
   33.8719   11.1206   66.1525 O   0  0  0  0  0  0  0  0  0  0  0  0
   32.6312   12.1737   64.2610 N   0  0  0  0  0  0  0  0  0  0  0  0
   32.0066    9.6177   65.2070 C   0  0  0  0  0  0  0  0  0  0  0  0
   31.2096    9.0911   64.1828 C   0  0  0  0  0  0  0  0  0  0  0  0
   32.0263    8.9766   66.4730 C   0  0  0  0  0  0  0  0  0  0  0  0
   30.4421    7.9399   64.3914 C   0  0  0  0  0  0  0  0  0  0  0  0
   31.2368    7.8316   66.6852 C   0  0  0  0  0  0  0  0  0  0  0  0
   30.3940    7.3280   65.6626 C   0  0  0  0  0  0  0  0  0  0  0  0
   29.5942    6.2821   65.8962 N   0  0  0  0  0  0  0  0  0  0  0  0
   28.5914    5.7746   65.1933 C   0  0  0  0  0  0  0  0  0  0  0  0
   28.2648    4.4493   65.4336 N   0  0  0  0  0  0  0  0  0  0  0  0
   27.8262    6.5046   64.2718 C   0  0  0  0  0  0  0  0  0  0  0  0
   27.2332    3.9042   64.7715 C   0  0  0  0  0  0  0  0  0  0  0  0
   26.6786    5.9092   63.6747 C   0  0  0  0  0  0  0  0  0  0  0  0
   26.3657    4.6129   63.9459 N   0  0  0  0  0  0  0  0  0  0  0  0
   25.8819    6.5933   62.7829 N   0  0  0  0  0  0  0  0  0  0  0  0
  1  2  2  0
  1  3  2  0
  1  4  1  0
  1  5  1  0
  5  6  2  0
  5  7  1  0
  6  8  1  0
  7  9  2  0
  8 10  2  0
 10 11  1  0
 11 12  1  0
 12 13  2  0
 12 14  1  0
 13 15  1  0
 14 16  2  0
 15 17  2  0
 16 18  1  0
  9 10  1  0
 16 17  1  0
M  END
>  <Molecule Name>  (171) 
FVFVVRPJERUECT-LMJMLDNBNA-N

>  <hs_clash>  (171) 
2.0

>  <hs_total>  (171) 
87.6770375266699

>  <Total Molweight>  (171) 
265.296

>  <cLogP>  (171) 
0.4163

>  <H-Acceptors>  (171) 
7

>  <H-Donors>  (171) 
3

>  <Polar Surface Area>  (171) 
132.37

>  <Non-H Atoms>  (171) 
18

>  <sp3-Atoms>  (171) 
1

$$$$
IRKLIGPGIXNXTP-DZQCGVKKNA-N
     RDKit          3D

 26 27  0  0  0  0  0  0  0  0999 V2000
   24.2944    7.4655   62.8428 O   0  0  0  0  0  0  0  0  0  0  0  0
   25.3918    8.1744   62.6822 N   0  0  0  0  0  0  0  0  0  0  0  0
   25.2844    9.3404   62.1025 O   0  0  0  0  0  0  0  0  0  0  0  0
   26.5209    7.7361   63.1204 C   0  0  0  0  0  0  0  0  0  0  0  0
   27.7226    8.4843   62.9466 C   0  0  0  0  0  0  0  0  0  0  0  0
   26.5741    6.4681   63.7985 C   0  0  0  0  0  0  0  0  0  0  0  0
   27.6878    9.6297   62.3277 N   0  0  0  0  0  0  0  0  0  0  0  0
   28.9422    7.9635   63.4586 C   0  0  0  0  0  0  0  0  0  0  0  0
   27.8005    5.9363   64.3116 C   0  0  0  0  0  0  0  0  0  0  0  0
   28.8806   10.5075   62.1590 C   0  0  0  0  0  0  0  0  0  0  0  0
   29.0053    6.6937   64.1488 C   0  0  0  0  0  0  0  0  0  0  0  0
   27.7867    4.7035   64.9448 C   0  0  0  0  0  0  0  0  0  0  0  0
   28.5517   11.6085   61.1543 C   0  0  0  0  0  0  0  0  0  0  0  0
   30.1397    6.2324   64.6164 N   0  0  0  0  0  0  0  0  0  0  0  0
   28.6427    4.3913   65.7599 O   0  0  0  0  0  0  0  0  0  0  0  0
   26.8136    3.7896   64.6334 N   0  0  0  0  0  0  0  0  0  0  0  0
   27.7078   12.6758   61.8426 C   0  0  0  0  0  0  0  0  0  0  0  0
   31.4629    6.9378   64.5039 C   0  0  0  0  0  0  0  0  0  0  0  0
   26.3758   12.2530   61.8711 O   0  0  0  0  0  0  0  0  0  0  0  0
   31.5774    8.1124   65.4655 C   0  0  0  0  0  0  0  0  0  0  0  0
   25.5437   12.6242   62.9308 C   0  0  0  0  0  0  0  0  0  0  0  0
   31.3283    7.9758   66.8517 C   0  0  0  0  0  0  0  0  0  0  0  0
   31.9374    9.3922   64.9867 C   0  0  0  0  0  0  0  0  0  0  0  0
   31.4244    9.0257   67.7279 N   0  0  0  0  0  0  0  0  0  0  0  0
   32.0443   10.4830   65.8674 C   0  0  0  0  0  0  0  0  0  0  0  0
   31.7780   10.2503   67.2279 C   0  0  0  0  0  0  0  0  0  0  0  0
  1  2  2  0
  2  3  1  0
  2  4  1  0
  4  5  2  0
  4  6  1  0
  5  7  1  0
  5  8  1  0
  6  9  2  0
  7 10  1  0
  8 11  2  0
  9 12  1  0
 10 13  1  0
 11 14  1  0
 12 15  2  0
 12 16  1  0
 13 17  1  0
 14 18  1  0
 17 19  1  0
 18 20  1  0
 19 21  1  0
 20 22  2  0
 20 23  1  0
 22 24  1  0
 23 25  2  0
 24 26  2  0
  9 11  1  0
 25 26  1  0
M  CHG  2   2   1   3  -1
M  END
>  <Molecule Name>  (172) 
IRKLIGPGIXNXTP-DZQCGVKKNA-N

>  <hs_clash>  (172) 
0.0

>  <hs_total>  (172) 
87.24961867358732

>  <Total Molweight>  (172) 
359.385

>  <cLogP>  (172) 
-0.1016

>  <H-Acceptors>  (172) 
9

>  <H-Donors>  (172) 
3

>  <Polar Surface Area>  (172) 
135.09

>  <Non-H Atoms>  (172) 
26

>  <sp3-Atoms>  (172) 
7

$$$$
VYDLJENKOXKXDK-HPHMPNDVNA-N
     RDKit          3D

 27 28  0  0  0  0  0  0  0  0999 V2000
   23.6192    7.0011   63.3290 O   0  0  0  0  0  0  0  0  0  0  0  0
   24.6817    7.5199   62.7435 N   0  0  0  0  0  0  0  0  0  0  0  0
   24.5129    8.2354   61.6477 O   0  0  0  0  0  0  0  0  0  0  0  0
   25.8596    7.3115   63.2092 C   0  0  0  0  0  0  0  0  0  0  0  0
   26.8862    8.3100   63.1188 C   0  0  0  0  0  0  0  0  0  0  0  0
   26.1578    6.0642   63.8245 C   0  0  0  0  0  0  0  0  0  0  0  0
   26.6433    9.4412   62.5709 N   0  0  0  0  0  0  0  0  0  0  0  0
   28.1910    8.0442   63.6403 C   0  0  0  0  0  0  0  0  0  0  0  0
   27.4522    5.7809   64.3536 C   0  0  0  0  0  0  0  0  0  0  0  0
   26.2001   10.5911   63.3804 C   0  0  0  0  0  0  0  0  0  0  0  0
   28.4959    6.7770   64.2643 C   0  0  0  0  0  0  0  0  0  0  0  0
   27.6624    4.5458   64.9361 C   0  0  0  0  0  0  0  0  0  0  0  0
   26.9301   11.8567   62.9177 C   0  0  0  0  0  0  0  0  0  0  0  0
   29.6844    6.5179   64.7472 N   0  0  0  0  0  0  0  0  0  0  0  0
   28.4803    4.4004   65.8184 O   0  0  0  0  0  0  0  0  0  0  0  0
   26.9282    3.4636   64.5181 N   0  0  0  0  0  0  0  0  0  0  0  0
   28.3845   11.8209   63.3941 C   0  0  0  0  0  0  0  0  0  0  0  0
   30.9237    7.2724   64.4116 C   0  0  0  0  0  0  0  0  0  0  0  0
   29.1549   12.9777   62.7763 C   0  0  0  0  0  0  0  0  0  0  0  0
   31.1641    8.3572   65.4275 C   0  0  0  0  0  0  0  0  0  0  0  0
   30.3020   13.3806   63.6978 C   0  0  0  0  0  0  0  0  0  0  0  0
   31.1247    8.0907   66.8136 C   0  0  0  0  0  0  0  0  0  0  0  0
   31.4322    9.6911   65.0150 C   0  0  0  0  0  0  0  0  0  0  0  0
   30.5123   14.8888   63.6125 C   0  0  0  0  0  0  0  0  0  0  0  0
   31.3340    9.0586   67.7722 N   0  0  0  0  0  0  0  0  0  0  0  0
   31.6528   10.7059   65.9802 C   0  0  0  0  0  0  0  0  0  0  0  0
   31.5936   10.3450   67.3403 C   0  0  0  0  0  0  0  0  0  0  0  0
  1  2  2  0
  2  3  1  0
  2  4  1  0
  4  5  2  0
  4  6  1  0
  5  7  1  0
  5  8  1  0
  6  9  2  0
  7 10  1  0
  8 11  2  0
  9 12  1  0
 10 13  1  0
 11 14  1  0
 12 15  2  0
 12 16  1  0
 13 17  1  0
 14 18  1  0
 17 19  1  0
 18 20  1  0
 19 21  1  0
 20 22  2  0
 20 23  1  0
 21 24  1  0
 22 25  1  0
 23 26  2  0
 25 27  2  0
  9 11  1  0
 26 27  1  0
M  CHG  2   2   1   3  -1
M  END
>  <Molecule Name>  (173) 
VYDLJENKOXKXDK-HPHMPNDVNA-N

>  <hs_clash>  (173) 
2.0

>  <hs_total>  (173) 
85.21230657105752

>  <Total Molweight>  (173) 
371.440

>  <cLogP>  (173) 
1.7604

>  <H-Acceptors>  (173) 
8

>  <H-Donors>  (173) 
3

>  <Polar Surface Area>  (173) 
125.86

>  <Non-H Atoms>  (173) 
27

>  <sp3-Atoms>  (173) 
8

$$$$
FUDBRAFSKPGJJE-PKSOQXRJNA-N
     RDKit          3D

 24 26  0  0  0  0  0  0  0  0999 V2000
   33.1132    9.1140   67.6376 Cl  0  0  0  0  0  0  0  0  0  0  0  0
   32.1261    8.6410   66.3024 C   0  0  0  0  0  0  0  0  0  0  0  0
   31.8358    9.5379   65.3001 C   0  0  0  0  0  0  0  0  0  0  0  0
   31.5926    7.3716   66.3215 C   0  0  0  0  0  0  0  0  0  0  0  0
   32.5202   10.8547   65.2199 N   0  0  0  0  0  0  0  0  0  0  0  0
   30.9579    9.1547   64.2983 C   0  0  0  0  0  0  0  0  0  0  0  0
   30.6899    6.9968   65.3359 C   0  0  0  0  0  0  0  0  0  0  0  0
   31.7926   11.8590   64.3921 C   0  0  0  0  0  0  0  0  0  0  0  0
   33.9430   10.7295   64.7906 C   0  0  0  0  0  0  0  0  0  0  0  0
   30.3856    7.8953   64.3197 C   0  0  0  0  0  0  0  0  0  0  0  0
   30.1036    5.7242   65.4636 N   0  0  0  0  0  0  0  0  0  0  0  0
   29.0410    5.1495   64.8601 C   0  0  0  0  0  0  0  0  0  0  0  0
   28.2619    5.9091   64.0511 N   0  0  0  0  0  0  0  0  0  0  0  0
   28.8551    3.8529   65.1263 N   0  0  0  0  0  0  0  0  0  0  0  0
   27.2316    5.2876   63.4570 C   0  0  0  0  0  0  0  0  0  0  0  0
   27.8184    3.2760   64.5015 C   0  0  0  0  0  0  0  0  0  0  0  0
   26.4602    6.1585   62.5500 C   0  0  0  0  0  0  0  0  0  0  0  0
   26.9489    3.9437   63.6588 C   0  0  0  0  0  0  0  0  0  0  0  0
   27.2150    7.6663   62.1148 S   0  0  0  0  0  0  0  0  0  0  0  0
   25.2642    6.0079   61.8426 C   0  0  0  0  0  0  0  0  0  0  0  0
   25.9153    7.9770   61.0045 C   0  0  0  0  0  0  0  0  0  0  0  0
   25.0029    7.0480   60.9656 N   0  0  0  0  0  0  0  0  0  0  0  0
   24.2558    4.9190   61.9964 C   0  0  0  0  0  0  0  0  0  0  0  0
   25.8637    9.2387   60.2095 C   0  0  0  0  0  0  0  0  0  0  0  0
  1  2  1  0
  2  3  2  0
  2  4  1  0
  3  5  1  0
  3  6  1  0
  4  7  2  0
  5  8  1  0
  5  9  1  0
  6 10  2  0
  7 11  1  0
 11 12  1  0
 12 13  2  0
 12 14  1  0
 13 15  1  0
 14 16  2  0
 15 17  1  0
 15 18  2  0
 17 19  1  0
 17 20  2  0
 19 21  1  0
 20 22  1  0
 20 23  1  0
 21 24  1  0
  7 10  1  0
 16 18  1  0
 21 22  2  0
M  END
>  <Molecule Name>  (174) 
FUDBRAFSKPGJJE-PKSOQXRJNA-N

>  <hs_clash>  (174) 
0.0

>  <hs_total>  (174) 
84.77786422870801

>  <Total Molweight>  (174) 
359.884

>  <cLogP>  (174) 
4.0599

>  <H-Acceptors>  (174) 
5

>  <H-Donors>  (174) 
1

>  <Polar Surface Area>  (174) 
82.18

>  <Non-H Atoms>  (174) 
24

>  <sp3-Atoms>  (174) 
5

$$$$
RAPSXQPDFJOVLN-UENFXYLWNA-O
     RDKit          3D

 25 26  0  0  0  0  0  0  0  0999 V2000
   24.0690    7.6549   63.1355 O   0  0  0  0  0  0  0  0  0  0  0  0
   25.1900    8.0658   62.5760 N   0  0  0  0  0  0  0  0  0  0  0  0
   25.1182    8.8458   61.5144 O   0  0  0  0  0  0  0  0  0  0  0  0
   26.3249    7.7033   63.0571 C   0  0  0  0  0  0  0  0  0  0  0  0
   27.4870    8.5441   62.9494 C   0  0  0  0  0  0  0  0  0  0  0  0
   26.4375    6.4347   63.7164 C   0  0  0  0  0  0  0  0  0  0  0  0
   27.4178    9.6959   62.3618 N   0  0  0  0  0  0  0  0  0  0  0  0
   28.7206    8.1022   63.4972 C   0  0  0  0  0  0  0  0  0  0  0  0
   27.6817    5.9867   64.2693 C   0  0  0  0  0  0  0  0  0  0  0  0
   28.5013   10.2039   61.4834 C   0  0  0  0  0  0  0  0  0  0  0  0
   28.8421    6.8327   64.1614 C   0  0  0  0  0  0  0  0  0  0  0  0
   27.7347    4.7446   64.8940 C   0  0  0  0  0  0  0  0  0  0  0  0
   28.5780   11.7226   61.5939 C   0  0  0  0  0  0  0  0  0  0  0  0
   29.9885    6.4454   64.6623 N   0  0  0  0  0  0  0  0  0  0  0  0
   28.5132    4.5322   65.7964 O   0  0  0  0  0  0  0  0  0  0  0  0
   26.9127    3.7272   64.4827 N   0  0  0  0  0  0  0  0  0  0  0  0
   27.8044   12.3537   60.4400 C   0  0  0  0  0  0  0  0  0  0  0  0
   31.2792    7.1733   64.4659 C   0  0  0  0  0  0  0  0  0  0  0  0
   27.6771   13.7727   60.6570 N   0  0  0  0  0  0  0  0  0  0  0  0
   31.4365    8.2979   65.4703 C   0  0  0  0  0  0  0  0  0  0  0  0
   31.8338    9.5818   65.0484 C   0  0  0  0  0  0  0  0  0  0  0  0
   31.1881    8.1024   66.8556 C   0  0  0  0  0  0  0  0  0  0  0  0
   31.9916   10.6441   65.9115 N   0  0  0  0  0  0  0  0  0  0  0  0
   31.3406    9.1773   67.7677 C   0  0  0  0  0  0  0  0  0  0  0  0
   31.7422   10.4234   67.2538 C   0  0  0  0  0  0  0  0  0  0  0  0
  1  2  2  0
  2  3  1  0
  2  4  1  0
  4  5  2  0
  4  6  1  0
  5  7  1  0
  5  8  1  0
  6  9  2  0
  7 10  1  0
  8 11  2  0
  9 12  1  0
 10 13  1  0
 11 14  1  0
 12 15  2  0
 12 16  1  0
 13 17  1  0
 14 18  1  0
 17 19  1  0
 18 20  1  0
 20 21  2  0
 20 22  1  0
 21 23  1  0
 22 24  2  0
 23 25  2  0
  9 11  1  0
 24 25  1  0
M  CHG  3   2   1   3  -1  19   1
M  END
>  <Molecule Name>  (175) 
RAPSXQPDFJOVLN-UENFXYLWNA-O

>  <hs_clash>  (175) 
0.0

>  <hs_total>  (175) 
83.97263243572557

>  <Total Molweight>  (175) 
345.382

>  <cLogP>  (175) 
-0.4546

>  <H-Acceptors>  (175) 
9

>  <H-Donors>  (175) 
4

>  <Polar Surface Area>  (175) 
153.5

>  <Non-H Atoms>  (175) 
25

>  <sp3-Atoms>  (175) 
6

$$$$
CJWWRAGBHVIPTP-PSAQQFEKNA-O
     RDKit          3D

 30 32  0  0  0  0  0  0  0  0999 V2000
   25.0178    9.4117   62.0788 O   0  0  0  0  0  0  0  0  0  0  0  0
   25.0894    8.3102   62.6645 N   0  0  0  0  0  0  0  0  0  0  0  0
   24.1018    7.5901   62.8689 O   0  0  0  0  0  0  0  0  0  0  0  0
   26.3201    7.8669   63.1189 C   0  0  0  0  0  0  0  0  0  0  0  0
   27.5127    8.6489   62.9246 C   0  0  0  0  0  0  0  0  0  0  0  0
   26.4163    6.5983   63.7974 C   0  0  0  0  0  0  0  0  0  0  0  0
   27.4555    9.8741   62.2583 N   0  0  0  0  0  0  0  0  0  0  0  0
   28.7651    8.1731   63.4127 C   0  0  0  0  0  0  0  0  0  0  0  0
   27.6803    6.1134   64.2879 C   0  0  0  0  0  0  0  0  0  0  0  0
   27.9548   11.1024   62.8457 C   0  0  0  0  0  0  0  0  0  0  0  0
   28.8663    6.9097   64.1001 C   0  0  0  0  0  0  0  0  0  0  0  0
   27.7435    4.7948   64.9751 C   0  0  0  0  0  0  0  0  0  0  0  0
   29.2056   11.5030   62.0893 C   0  0  0  0  0  0  0  0  0  0  0  0
   30.1032    6.4571   64.5808 N   0  0  0  0  0  0  0  0  0  0  0  0
   28.5435    4.5170   65.8497 O   0  0  0  0  0  0  0  0  0  0  0  0
   26.8427    3.8424   64.5365 N   0  0  0  0  0  0  0  0  0  0  0  0
   29.8912   12.6709   62.7712 C   0  0  0  0  0  0  0  0  0  0  0  0
   31.3633    7.2020   64.4362 C   0  0  0  0  0  0  0  0  0  0  0  0
   31.0805   12.9755   61.9731 N   0  0  0  0  0  0  0  0  0  0  0  0
   31.4501    8.3318   65.4635 C   0  0  0  0  0  0  0  0  0  0  0  0
   32.2873   13.2922   62.8910 C   0  0  0  0  0  0  0  0  0  0  0  0
   30.7732   14.1493   61.0028 C   0  0  0  0  0  0  0  0  0  0  0  0
   31.1499    8.0927   66.8392 C   0  0  0  0  0  0  0  0  0  0  0  0
   31.8293    9.6394   65.0389 C   0  0  0  0  0  0  0  0  0  0  0  0
   33.5316   13.6078   62.0340 C   0  0  0  0  0  0  0  0  0  0  0  0
   32.0164   14.4748   60.1435 C   0  0  0  0  0  0  0  0  0  0  0  0
   31.2336    9.1665   67.7684 N   0  0  0  0  0  0  0  0  0  0  0  0
   31.9121   10.7146   65.9748 C   0  0  0  0  0  0  0  0  0  0  0  0
   33.1906   13.5351   60.5170 O   0  0  0  0  0  0  0  0  0  0  0  0
   31.6138   10.4772   67.3416 C   0  0  0  0  0  0  0  0  0  0  0  0
  1  2  2  0
  2  3  1  0
  2  4  1  0
  4  5  2  0
  4  6  1  0
  5  7  1  0
  5  8  1  0
  6  9  2  0
  7 10  1  0
  8 11  2  0
  9 12  1  0
 10 13  1  0
 11 14  1  0
 12 15  2  0
 12 16  1  0
 13 17  1  0
 14 18  1  0
 17 19  1  0
 18 20  1  0
 19 21  1  0
 19 22  1  0
 20 23  2  0
 20 24  1  0
 21 25  1  0
 22 26  1  0
 23 27  1  0
 24 28  2  0
 25 29  1  0
 27 30  2  0
  9 11  1  0
 26 29  1  0
 28 30  1  0
M  CHG  3   2   1   3  -1  19   1
M  END
>  <Molecule Name>  (176) 
CJWWRAGBHVIPTP-PSAQQFEKNA-O

>  <hs_clash>  (176) 
62.0

>  <hs_total>  (176) 
82.53337532550907

>  <Total Molweight>  (176) 
415.472

>  <cLogP>  (176) 
-1.1352

>  <H-Acceptors>  (176) 
10

>  <H-Donors>  (176) 
4

>  <Polar Surface Area>  (176) 
139.53

>  <Non-H Atoms>  (176) 
30

>  <sp3-Atoms>  (176) 
11

$$$$
UERTXDNWFMBKLO-BUDVQIAPNA-N
     RDKit          3D

 27 29  0  0  0  0  0  0  0  0999 V2000
   33.2771   10.6178   64.7858 S   0  0  0  0  0  0  0  0  0  0  0  0
   34.3000   10.2037   63.8804 O   0  0  0  0  0  0  0  0  0  0  0  0
   33.8755   11.0233   66.0531 O   0  0  0  0  0  0  0  0  0  0  0  0
   32.4076   11.8765   64.0893 N   0  0  0  0  0  0  0  0  0  0  0  0
   32.2203    9.2223   65.0694 C   0  0  0  0  0  0  0  0  0  0  0  0
   32.3785    8.4585   66.2544 C   0  0  0  0  0  0  0  0  0  0  0  0
   31.2302    8.8749   64.1132 C   0  0  0  0  0  0  0  0  0  0  0  0
   31.5493    7.3348   66.4890 C   0  0  0  0  0  0  0  0  0  0  0  0
   30.3931    7.7472   64.3440 C   0  0  0  0  0  0  0  0  0  0  0  0
   30.5482    6.9579   65.5477 C   0  0  0  0  0  0  0  0  0  0  0  0
   29.8293    5.9066   65.8377 N   0  0  0  0  0  0  0  0  0  0  0  0
   28.8034    5.4102   65.1990 C   0  0  0  0  0  0  0  0  0  0  0  0
   27.7348    6.3086   64.1689 S   0  0  0  0  0  0  0  0  0  0  0  0
   28.5191    4.1320   65.3231 N   0  0  0  0  0  0  0  0  0  0  0  0
   26.8207    4.8697   63.8721 C   0  0  0  0  0  0  0  0  0  0  0  0
   27.3965    3.8156   64.5751 C   0  0  0  0  0  0  0  0  0  0  0  0
   25.7042    4.8214   63.0568 C   0  0  0  0  0  0  0  0  0  0  0  0
   26.9401    2.6324   64.5476 N   0  0  0  0  0  0  0  0  0  0  0  0
   25.0981    3.7646   62.8754 O   0  0  0  0  0  0  0  0  0  0  0  0
   25.2864    6.0121   62.4585 N   0  0  0  0  0  0  0  0  0  0  0  0
   24.2055    6.1871   61.6259 C   0  0  0  0  0  0  0  0  0  0  0  0
   23.0204    5.3805   61.7264 C   0  0  0  0  0  0  0  0  0  0  0  0
   24.2664    7.2149   60.6428 C   0  0  0  0  0  0  0  0  0  0  0  0
   21.9223    5.6028   60.8501 C   0  0  0  0  0  0  0  0  0  0  0  0
   23.1614    7.4413   59.7666 C   0  0  0  0  0  0  0  0  0  0  0  0
   20.8355    4.8497   60.9508 F   0  0  0  0  0  0  0  0  0  0  0  0
   21.9914    6.6320   59.8741 C   0  0  0  0  0  0  0  0  0  0  0  0
  1  2  2  0
  1  3  2  0
  1  4  1  0
  1  5  1  0
  5  6  2  0
  5  7  1  0
  6  8  1  0
  7  9  2  0
  8 10  2  0
 10 11  1  0
 11 12  1  0
 12 13  1  0
 12 14  2  0
 13 15  1  0
 14 16  1  0
 15 17  1  0
 16 18  1  0
 17 19  2  0
 17 20  1  0
 20 21  1  0
 21 22  2  0
 21 23  1  0
 22 24  1  0
 23 25  2  0
 24 26  1  0
 24 27  2  0
  9 10  1  0
 15 16  2  0
 25 27  1  0
M  END
>  <Molecule Name>  (177) 
UERTXDNWFMBKLO-BUDVQIAPNA-N

>  <hs_clash>  (177) 
13.0

>  <hs_total>  (177) 
81.57204418640325

>  <Total Molweight>  (177) 
407.449

>  <cLogP>  (177) 
2.5839

>  <H-Acceptors>  (177) 
8

>  <H-Donors>  (177) 
4

>  <Polar Surface Area>  (177) 
176.82

>  <Non-H Atoms>  (177) 
27

>  <sp3-Atoms>  (177) 
1

$$$$
JJDRRZFRTKZLFT-GPQMBLKYNA-N
     RDKit          3D

 21 23  0  0  0  0  0  0  0  0999 V2000
   27.1112    7.1810   61.8997 S   0  0  0  0  0  0  0  0  0  0  0  0
   26.3592    5.7418   62.5121 C   0  0  0  0  0  0  0  0  0  0  0  0
   25.8171    7.5369   60.9271 C   0  0  0  0  0  0  0  0  0  0  0  0
   27.1351    5.0004   63.4610 C   0  0  0  0  0  0  0  0  0  0  0  0
   25.1016    5.6339   61.8921 C   0  0  0  0  0  0  0  0  0  0  0  0
   24.8248    6.6668   60.9991 N   0  0  0  0  0  0  0  0  0  0  0  0
   25.8574    8.7655   60.0698 C   0  0  0  0  0  0  0  0  0  0  0  0
   28.1569    5.6546   64.0707 N   0  0  0  0  0  0  0  0  0  0  0  0
   26.8936    3.6233   63.7668 C   0  0  0  0  0  0  0  0  0  0  0  0
   24.0247    4.5646   62.0556 C   0  0  0  0  0  0  0  0  0  0  0  0
   28.9181    5.0270   64.9337 C   0  0  0  0  0  0  0  0  0  0  0  0
   27.7649    3.0293   64.7095 C   0  0  0  0  0  0  0  0  0  0  0  0
   28.7594    3.7464   65.2690 N   0  0  0  0  0  0  0  0  0  0  0  0
   30.0184    5.6471   65.5896 N   0  0  0  0  0  0  0  0  0  0  0  0
   30.7012    6.9086   65.2813 C   0  0  0  0  0  0  0  0  0  0  0  0
   30.3764    7.8303   64.2169 C   0  0  0  0  0  0  0  0  0  0  0  0
   31.7855    7.2296   66.1313 C   0  0  0  0  0  0  0  0  0  0  0  0
   31.1274    9.0236   64.0297 C   0  0  0  0  0  0  0  0  0  0  0  0
   32.5416    8.4160   65.9471 C   0  0  0  0  0  0  0  0  0  0  0  0
   30.8426    9.9191   63.0405 O   0  0  0  0  0  0  0  0  0  0  0  0
   32.2049    9.3070   64.8966 C   0  0  0  0  0  0  0  0  0  0  0  0
  1  2  1  0
  1  3  1  0
  2  4  1  0
  2  5  2  0
  3  6  2  0
  3  7  1  0
  4  8  2  0
  4  9  1  0
  5 10  1  0
  8 11  1  0
  9 12  2  0
 11 13  2  0
 11 14  1  0
 14 15  1  0
 15 16  2  0
 15 17  1  0
 16 18  1  0
 17 19  2  0
 18 20  1  0
 18 21  2  0
  5  6  1  0
 12 13  1  0
 19 21  1  0
M  END
>  <Molecule Name>  (178) 
JJDRRZFRTKZLFT-GPQMBLKYNA-N

>  <hs_clash>  (178) 
0.0

>  <hs_total>  (178) 
81.44519497382225

>  <Total Molweight>  (178) 
298.369

>  <cLogP>  (178) 
3.2118

>  <H-Acceptors>  (178) 
5

>  <H-Donors>  (178) 
2

>  <Polar Surface Area>  (178) 
99.17

>  <Non-H Atoms>  (178) 
21

>  <sp3-Atoms>  (178) 
3

$$$$
STRAQIMXXYJKPS-CLRGVMNRNA-N
     RDKit          3D

 25 26  0  0  0  0  0  0  0  0999 V2000
   23.8907    7.2212   63.1617 O   0  0  0  0  0  0  0  0  0  0  0  0
   24.9891    7.8483   62.7978 N   0  0  0  0  0  0  0  0  0  0  0  0
   24.8761    8.8780   61.9855 O   0  0  0  0  0  0  0  0  0  0  0  0
   26.1373    7.4597   63.2277 C   0  0  0  0  0  0  0  0  0  0  0  0
   27.3033    8.2788   63.0643 C   0  0  0  0  0  0  0  0  0  0  0  0
   26.2635    6.1839   63.8846 C   0  0  0  0  0  0  0  0  0  0  0  0
   27.2212    9.4389   62.4759 N   0  0  0  0  0  0  0  0  0  0  0  0
   28.5535    7.8232   63.5493 C   0  0  0  0  0  0  0  0  0  0  0  0
   27.5306    5.7172   64.3787 C   0  0  0  0  0  0  0  0  0  0  0  0
   28.2499    9.9029   61.5091 C   0  0  0  0  0  0  0  0  0  0  0  0
   28.7028    6.5531   64.2100 C   0  0  0  0  0  0  0  0  0  0  0  0
   27.5893    4.4670   64.9990 C   0  0  0  0  0  0  0  0  0  0  0  0
   28.8572   11.2085   62.0022 C   0  0  0  0  0  0  0  0  0  0  0  0
   29.8809    6.1472   64.6544 N   0  0  0  0  0  0  0  0  0  0  0  0
   28.4245    4.2098   65.8497 O   0  0  0  0  0  0  0  0  0  0  0  0
   26.7002    3.4901   64.6542 N   0  0  0  0  0  0  0  0  0  0  0  0
   27.8396   12.1689   62.1379 O   0  0  0  0  0  0  0  0  0  0  0  0
   31.1846    6.8703   64.4723 C   0  0  0  0  0  0  0  0  0  0  0  0
   31.2509    8.0696   65.3943 C   0  0  0  0  0  0  0  0  0  0  0  0
   31.5100    9.3536   64.9141 C   0  0  0  0  0  0  0  0  0  0  0  0
   31.0373    7.9875   66.7753 C   0  0  0  0  0  0  0  0  0  0  0  0
   31.5566   10.4660   65.7008 N   0  0  0  0  0  0  0  0  0  0  0  0
   31.0726    9.0675   67.6091 N   0  0  0  0  0  0  0  0  0  0  0  0
   31.3288   10.2676   67.0338 C   0  0  0  0  0  0  0  0  0  0  0  0
   31.3575   11.2951   67.7999 N   0  0  0  0  0  0  0  0  0  0  0  0
  1  2  2  0
  2  3  1  0
  2  4  1  0
  4  5  2  0
  4  6  1  0
  5  7  1  0
  5  8  1  0
  6  9  2  0
  7 10  1  0
  8 11  2  0
  9 12  1  0
 10 13  1  0
 11 14  1  0
 12 15  2  0
 12 16  1  0
 13 17  1  0
 14 18  1  0
 18 19  1  0
 19 20  2  0
 19 21  1  0
 20 22  1  0
 21 23  2  0
 22 24  2  0
 24 25  1  0
  9 11  1  0
 23 24  1  0
M  CHG  2   2   1   3  -1
M  END
>  <Molecule Name>  (179) 
STRAQIMXXYJKPS-CLRGVMNRNA-N

>  <hs_clash>  (179) 
0.0

>  <hs_total>  (179) 
81.30524149150465

>  <Total Molweight>  (179) 
347.334

>  <cLogP>  (179) 
-1.854

>  <H-Acceptors>  (179) 
11

>  <H-Donors>  (179) 
5

>  <Polar Surface Area>  (179) 
185

>  <Non-H Atoms>  (179) 
25

>  <sp3-Atoms>  (179) 
5

$$$$
VKUXBRRQHBTQPW-GJEATFQINA-O
     RDKit          3D

 29 32  0  0  0  0  0  0  0  0999 V2000
   31.5659   10.7368   64.7484 O   0  0  0  0  0  0  0  0  0  0  0  0
   31.0810    9.4681   64.9504 C   0  0  0  0  0  0  0  0  0  0  0  0
   30.8267   11.6383   63.9167 C   0  0  0  0  0  0  0  0  0  0  0  0
   30.0048    8.9795   64.2340 C   0  0  0  0  0  0  0  0  0  0  0  0
   31.6991    8.6480   65.8687 C   0  0  0  0  0  0  0  0  0  0  0  0
   31.2959   13.0377   64.2072 C   0  0  0  0  0  0  0  0  0  0  0  0
   29.5093    7.7483   64.4230 N   0  0  0  0  0  0  0  0  0  0  0  0
   31.2052    7.3782   66.0726 C   0  0  0  0  0  0  0  0  0  0  0  0
   31.6006   13.2840   65.6720 C   0  0  0  0  0  0  0  0  0  0  0  0
   30.0992    6.9647   65.3337 C   0  0  0  0  0  0  0  0  0  0  0  0
   30.9398   14.4649   66.2199 N   0  0  0  0  0  0  0  0  0  0  0  0
   29.5812    5.7030   65.5549 N   0  0  0  0  0  0  0  0  0  0  0  0
   31.8060   15.6294   66.1286 C   0  0  0  0  0  0  0  0  0  0  0  0
   30.5540   14.2473   67.6056 C   0  0  0  0  0  0  0  0  0  0  0  0
   28.5594    4.9987   64.9444 C   0  0  0  0  0  0  0  0  0  0  0  0
   28.5531    3.7014   65.2677 N   0  0  0  0  0  0  0  0  0  0  0  0
   27.5971    5.5768   64.1126 C   0  0  0  0  0  0  0  0  0  0  0  0
   27.5711    2.9852   64.7239 C   0  0  0  0  0  0  0  0  0  0  0  0
   26.6648    4.6873   63.5768 C   0  0  0  0  0  0  0  0  0  0  0  0
   26.6075    3.3933   63.8965 N   0  0  0  0  0  0  0  0  0  0  0  0
   25.6076    5.1351   62.7323 N   0  0  0  0  0  0  0  0  0  0  0  0
   25.6232    6.2535   61.8935 C   0  0  0  0  0  0  0  0  0  0  0  0
   24.4075    4.4976   62.4963 C   0  0  0  0  0  0  0  0  0  0  0  0
   24.3964    6.2383   61.2369 C   0  0  0  0  0  0  0  0  0  0  0  0
   26.5544    7.2617   61.6834 C   0  0  0  0  0  0  0  0  0  0  0  0
   23.6543    5.1306   61.6286 N   0  0  0  0  0  0  0  0  0  0  0  0
   24.0973    7.2540   60.3304 C   0  0  0  0  0  0  0  0  0  0  0  0
   26.2335    8.2631   60.7795 C   0  0  0  0  0  0  0  0  0  0  0  0
   25.0243    8.2621   60.1203 C   0  0  0  0  0  0  0  0  0  0  0  0
  1  2  1  0
  1  3  1  0
  2  4  2  0
  2  5  1  0
  3  6  1  0
  4  7  1  0
  5  8  2  0
  6  9  1  0
  7 10  2  0
  9 11  1  0
 10 12  1  0
 11 13  1  0
 11 14  1  0
 12 15  1  0
 15 16  2  0
 15 17  1  0
 16 18  1  0
 17 19  2  0
 18 20  2  0
 19 21  1  0
 21 22  1  0
 21 23  1  0
 22 24  2  0
 22 25  1  0
 23 26  2  0
 24 27  1  0
 25 28  2  0
 27 29  2  0
  8 10  1  0
 19 20  1  0
 24 26  1  0
 28 29  1  0
M  CHG  1  11   1
M  END
>  <Molecule Name>  (180) 
VKUXBRRQHBTQPW-GJEATFQINA-O

>  <hs_clash>  (180) 
7.0

>  <hs_total>  (180) 
80.1168127042628

>  <Total Molweight>  (180) 
390.470

>  <cLogP>  (180) 
2.5486

>  <H-Acceptors>  (180) 
8

>  <H-Donors>  (180) 
2

>  <Polar Surface Area>  (180) 
82.19

>  <Non-H Atoms>  (180) 
29

>  <sp3-Atoms>  (180) 
7

$$$$
XHEQSRJCJTWWAH-PWIKPTQSNA-N
     RDKit          3D

 31 34  0  0  0  0  0  0  0  0999 V2000
   34.3393   10.7333   64.3224 O   0  0  0  0  0  0  0  0  0  0  0  0
   33.2159   10.9582   64.7742 C   0  0  0  0  0  0  0  0  0  0  0  0
   32.7649   12.2034   65.0059 N   0  0  0  0  0  0  0  0  0  0  0  0
   32.4099    9.7239   64.9906 C   0  0  0  0  0  0  0  0  0  0  0  0
   33.7175   13.2428   65.4044 C   0  0  0  0  0  0  0  0  0  0  0  0
   31.3745   12.6591   64.8743 C   0  0  0  0  0  0  0  0  0  0  0  0
   31.3502    9.4970   64.1231 C   0  0  0  0  0  0  0  0  0  0  0  0
   32.7353    8.7926   65.9685 C   0  0  0  0  0  0  0  0  0  0  0  0
   34.3812   13.8678   64.1894 C   0  0  0  0  0  0  0  0  0  0  0  0
   31.1571   13.2082   63.4848 C   0  0  0  0  0  0  0  0  0  0  0  0
   30.5882    8.3578   64.2463 C   0  0  0  0  0  0  0  0  0  0  0  0
   31.9743    7.6317   66.0942 C   0  0  0  0  0  0  0  0  0  0  0  0
   30.8799    7.4067   65.2300 C   0  0  0  0  0  0  0  0  0  0  0  0
   30.1391    6.2909   65.4127 N   0  0  0  0  0  0  0  0  0  0  0  0
   28.9757    5.9855   64.8094 C   0  0  0  0  0  0  0  0  0  0  0  0
   28.2447    6.8448   64.0548 N   0  0  0  0  0  0  0  0  0  0  0  0
   28.5593    4.7250   64.9635 N   0  0  0  0  0  0  0  0  0  0  0  0
   27.1155    6.4405   63.4471 C   0  0  0  0  0  0  0  0  0  0  0  0
   27.4384    4.2904   64.3984 C   0  0  0  0  0  0  0  0  0  0  0  0
   26.3706    7.2823   62.6701 O   0  0  0  0  0  0  0  0  0  0  0  0
   26.6934    5.1373   63.6242 C   0  0  0  0  0  0  0  0  0  0  0  0
   26.8496    3.1065   64.3981 N   0  0  0  0  0  0  0  0  0  0  0  0
   26.8074    8.6180   62.3466 C   0  0  0  0  0  0  0  0  0  0  0  0
   25.6381    4.4478   63.1650 N   0  0  0  0  0  0  0  0  0  0  0  0
   25.7428    3.1994   63.6342 C   0  0  0  0  0  0  0  0  0  0  0  0
   25.8861    9.2726   61.3130 C   0  0  0  0  0  0  0  0  0  0  0  0
   25.8601    8.4805   59.9936 C   0  0  0  0  0  0  0  0  0  0  0  0
   26.3591   10.7015   61.0478 C   0  0  0  0  0  0  0  0  0  0  0  0
   24.9160    9.1536   58.9891 C   0  0  0  0  0  0  0  0  0  0  0  0
   25.5513   11.3871   59.9399 C   0  0  0  0  0  0  0  0  0  0  0  0
   25.4025   10.5573   58.6620 C   0  0  0  0  0  0  0  0  0  0  0  0
  1  2  2  0
  2  3  1  0
  2  4  1  0
  3  5  1  0
  3  6  1  0
  4  7  2  0
  4  8  1  0
  5  9  1  0
  6 10  1  0
  7 11  1  0
  8 12  2  0
 11 13  2  0
 13 14  1  0
 14 15  1  0
 15 16  2  0
 15 17  1  0
 16 18  1  0
 17 19  2  0
 18 20  1  0
 18 21  2  0
 19 22  1  0
 20 23  1  0
 21 24  1  0
 22 25  2  0
 23 26  1  0
 26 27  1  0
 26 28  1  0
 27 29  1  0
 28 30  1  0
 29 31  1  0
 12 13  1  0
 19 21  1  0
 24 25  1  0
 30 31  1  0
M  END
>  <Molecule Name>  (181) 
XHEQSRJCJTWWAH-PWIKPTQSNA-N

>  <hs_clash>  (181) 
15.0

>  <hs_total>  (181) 
80.06130774715774

>  <Total Molweight>  (181) 
422.531

>  <cLogP>  (181) 
4.4285

>  <H-Acceptors>  (181) 
8

>  <H-Donors>  (181) 
2

>  <Polar Surface Area>  (181) 
96.03

>  <Non-H Atoms>  (181) 
31

>  <sp3-Atoms>  (181) 
12

$$$$
CWQKPKYIMQTGJK-RVQYIEHVNA-N
     RDKit          3D

 19 20  0  0  0  0  0  0  0  0999 V2000
   33.1113   10.3494   65.8561 F   0  0  0  0  0  0  0  0  0  0  0  0
   32.2680    9.3103   65.7277 C   0  0  0  0  0  0  0  0  0  0  0  0
   32.0255    8.5069   66.8194 C   0  0  0  0  0  0  0  0  0  0  0  0
   31.6665    9.0740   64.5051 C   0  0  0  0  0  0  0  0  0  0  0  0
   31.1612    7.4370   66.6923 C   0  0  0  0  0  0  0  0  0  0  0  0
   30.7981    8.0071   64.3779 C   0  0  0  0  0  0  0  0  0  0  0  0
   30.5364    7.1799   65.4737 C   0  0  0  0  0  0  0  0  0  0  0  0
   29.6612    6.1120   65.3496 N   0  0  0  0  0  0  0  0  0  0  0  0
   28.4893    6.1055   64.6899 C   0  0  0  0  0  0  0  0  0  0  0  0
   28.0572    7.0913   64.1132 O   0  0  0  0  0  0  0  0  0  0  0  0
   27.7590    4.8154   64.6622 C   0  0  0  0  0  0  0  0  0  0  0  0
   28.1599    3.8091   65.3934 N   0  0  0  0  0  0  0  0  0  0  0  0
   26.6321    4.4571   63.9347 C   0  0  0  0  0  0  0  0  0  0  0  0
   27.3108    2.7941   65.1280 N   0  0  0  0  0  0  0  0  0  0  0  0
   25.9498    5.2945   63.0671 N   0  0  0  0  0  0  0  0  0  0  0  0
   26.3790    3.1568   64.2586 C   0  0  0  0  0  0  0  0  0  0  0  0
   24.8532    4.9771   62.3514 C   0  0  0  0  0  0  0  0  0  0  0  0
   24.3698    3.8589   62.3642 O   0  0  0  0  0  0  0  0  0  0  0  0
   24.2775    6.0781   61.5260 C   0  0  0  0  0  0  0  0  0  0  0  0
  1  2  1  0
  2  3  2  0
  2  4  1  0
  3  5  1  0
  4  6  2  0
  5  7  2  0
  7  8  1  0
  8  9  1  0
  9 10  2  0
  9 11  1  0
 11 12  2  0
 11 13  1  0
 12 14  1  0
 13 15  1  0
 13 16  2  0
 15 17  1  0
 17 18  2  0
 17 19  1  0
  6  7  1  0
 14 16  1  0
M  END
>  <Molecule Name>  (182) 
CWQKPKYIMQTGJK-RVQYIEHVNA-N

>  <hs_clash>  (182) 
0.0

>  <hs_total>  (182) 
79.28901662935539

>  <Total Molweight>  (182) 
262.243

>  <cLogP>  (182) 
0.5592

>  <H-Acceptors>  (182) 
6

>  <H-Donors>  (182) 
3

>  <Polar Surface Area>  (182) 
86.88

>  <Non-H Atoms>  (182) 
19

>  <sp3-Atoms>  (182) 
1

$$$$
FQEUBNKUJIJESK-QXYMKYIANA-N
     RDKit          3D

 28 30  0  0  0  0  0  0  0  0999 V2000
   33.2286   10.6293   64.8452 S   0  0  0  0  0  0  0  0  0  0  0  0
   34.3013   10.0808   64.0128 O   0  0  0  0  0  0  0  0  0  0  0  0
   33.5596   11.2291   66.1524 O   0  0  0  0  0  0  0  0  0  0  0  0
   32.3492   11.7761   63.9169 N   0  0  0  0  0  0  0  0  0  0  0  0
   32.1737    9.2602   65.1212 C   0  0  0  0  0  0  0  0  0  0  0  0
   32.3487    8.4801   66.3162 C   0  0  0  0  0  0  0  0  0  0  0  0
   31.2058    8.9223   64.1403 C   0  0  0  0  0  0  0  0  0  0  0  0
   31.5477    7.3358   66.5172 C   0  0  0  0  0  0  0  0  0  0  0  0
   30.4086    7.7790   64.3433 C   0  0  0  0  0  0  0  0  0  0  0  0
   30.5745    6.9699   65.5334 C   0  0  0  0  0  0  0  0  0  0  0  0
   29.8768    5.8459   65.6852 N   0  0  0  0  0  0  0  0  0  0  0  0
   28.7249    5.3345   65.1550 C   0  0  0  0  0  0  0  0  0  0  0  0
   27.7128    6.2026   64.0327 S   0  0  0  0  0  0  0  0  0  0  0  0
   28.3055    4.1101   65.4224 N   0  0  0  0  0  0  0  0  0  0  0  0
   26.6926    4.7762   63.9203 C   0  0  0  0  0  0  0  0  0  0  0  0
   27.1509    3.7744   64.7215 C   0  0  0  0  0  0  0  0  0  0  0  0
   25.5396    4.8140   63.0047 C   0  0  0  0  0  0  0  0  0  0  0  0
   26.5731    2.5142   64.8541 N   0  0  0  0  0  0  0  0  0  0  0  0
   24.9390    3.7680   62.7469 O   0  0  0  0  0  0  0  0  0  0  0  0
   25.2572    6.0079   62.4601 N   0  0  0  0  0  0  0  0  0  0  0  0
   24.2612    6.3541   61.5040 C   0  0  0  0  0  0  0  0  0  0  0  0
   22.8490    6.0920   61.7379 C   0  0  0  0  0  0  0  0  0  0  0  0
   24.6717    6.9757   60.2792 C   0  0  0  0  0  0  0  0  0  0  0  0
   22.4163    5.5046   62.8862 F   0  0  0  0  0  0  0  0  0  0  0  0
   21.8834    6.4579   60.7388 C   0  0  0  0  0  0  0  0  0  0  0  0
   25.9956    7.2210   60.0525 F   0  0  0  0  0  0  0  0  0  0  0  0
   23.7032    7.3401   59.2923 C   0  0  0  0  0  0  0  0  0  0  0  0
   22.3109    7.0797   59.5217 C   0  0  0  0  0  0  0  0  0  0  0  0
  1  2  2  0
  1  3  2  0
  1  4  1  0
  1  5  1  0
  5  6  2  0
  5  7  1  0
  6  8  1  0
  7  9  2  0
  8 10  2  0
 10 11  1  0
 11 12  1  0
 12 13  1  0
 12 14  2  0
 13 15  1  0
 14 16  1  0
 15 17  1  0
 16 18  1  0
 17 19  2  0
 17 20  1  0
 20 21  1  0
 21 22  2  0
 21 23  1  0
 22 24  1  0
 22 25  1  0
 23 26  1  0
 23 27  2  0
 25 28  2  0
  9 10  1  0
 15 16  2  0
 27 28  1  0
M  END
>  <Molecule Name>  (183) 
FQEUBNKUJIJESK-QXYMKYIANA-N

>  <hs_clash>  (183) 
14.0

>  <hs_total>  (183) 
77.2196810966181

>  <Total Molweight>  (183) 
425.439

>  <cLogP>  (183) 
2.6847

>  <H-Acceptors>  (183) 
8

>  <H-Donors>  (183) 
4

>  <Polar Surface Area>  (183) 
176.82

>  <Non-H Atoms>  (183) 
28

>  <sp3-Atoms>  (183) 
1

$$$$
AARNVVCHOMHOPP-NLVQTBMLNA-N
     RDKit          3D

 17 19  0  0  0  0  0  0  0  0999 V2000
   25.0312   11.1002   62.8214 S   0  0  0  0  0  0  0  0  0  0  0  0
   26.4379   10.0870   62.7953 C   0  0  0  0  0  0  0  0  0  0  0  0
   25.8673   12.4937   62.3944 C   0  0  0  0  0  0  0  0  0  0  0  0
   26.3647    8.7795   63.2035 C   0  0  0  0  0  0  0  0  0  0  0  0
   27.4938   10.8571   62.5363 C   0  0  0  0  0  0  0  0  0  0  0  0
   27.1639   12.1786   62.3006 C   0  0  0  0  0  0  0  0  0  0  0  0
   25.2637    8.2650   63.3375 O   0  0  0  0  0  0  0  0  0  0  0  0
   27.5466    8.2023   63.5990 N   0  0  0  0  0  0  0  0  0  0  0  0
   27.7698    6.9720   64.2383 C   0  0  0  0  0  0  0  0  0  0  0  0
   28.7870    7.0642   65.1198 N   0  0  0  0  0  0  0  0  0  0  0  0
   27.1038    5.8015   64.0257 C   0  0  0  0  0  0  0  0  0  0  0  0
   29.1386    5.9646   65.8620 C   0  0  0  0  0  0  0  0  0  0  0  0
   26.1162    5.4172   63.1946 N   0  0  0  0  0  0  0  0  0  0  0  0
   27.5043    4.6584   64.7323 C   0  0  0  0  0  0  0  0  0  0  0  0
   28.5095    4.7348   65.5867 N   0  0  0  0  0  0  0  0  0  0  0  0
   25.9227    4.1041   63.3391 C   0  0  0  0  0  0  0  0  0  0  0  0
   26.8138    3.6092   64.3026 N   0  0  0  0  0  0  0  0  0  0  0  0
  1  2  1  0
  1  3  1  0
  2  4  1  0
  2  5  2  0
  3  6  2  0
  4  7  2  0
  4  8  1  0
  8  9  1  0
  9 10  2  0
  9 11  1  0
 10 12  1  0
 11 13  1  0
 11 14  2  0
 12 15  2  0
 13 16  2  0
 14 17  1  0
  5  6  1  0
 14 15  1  0
 16 17  1  0
M  END
>  <Molecule Name>  (184) 
AARNVVCHOMHOPP-NLVQTBMLNA-N

>  <hs_clash>  (184) 
0.0

>  <hs_total>  (184) 
76.11451976242012

>  <Total Molweight>  (184) 
245.266

>  <cLogP>  (184) 
1.3444

>  <H-Acceptors>  (184) 
6

>  <H-Donors>  (184) 
2

>  <Polar Surface Area>  (184) 
111.8

>  <Non-H Atoms>  (184) 
17

>  <sp3-Atoms>  (184) 
0

$$$$
XOLMRFUGOINFDQ-IRXZHZTGNA-O
     RDKit          3D

 24 27  0  0  0  0  0  0  0  0999 V2000
   22.8953    6.1016   61.7836 S   0  0  0  0  0  0  0  0  0  0  0  0
   23.8742    7.2814   60.9288 C   0  0  0  0  0  0  0  0  0  0  0  0
   24.2894    5.5600   62.6777 C   0  0  0  0  0  0  0  0  0  0  0  0
   23.4716    8.1732   59.9994 N   0  0  0  0  0  0  0  0  0  0  0  0
   25.1784    7.3027   61.2486 N   0  0  0  0  0  0  0  0  0  0  0  0
   25.4136    6.3914   62.1926 C   0  0  0  0  0  0  0  0  0  0  0  0
   24.3398    4.4892   63.7208 C   0  0  0  0  0  0  0  0  0  0  0  0
   24.2385    9.4056   59.7699 C   0  0  0  0  0  0  0  0  0  0  0  0
   26.6036    6.2753   62.6219 O   0  0  0  0  0  0  0  0  0  0  0  0
   25.6769    4.2245   64.3314 C   0  0  0  0  0  0  0  0  0  0  0  0
   25.2702    9.7506   60.8373 C   0  0  0  0  0  0  0  0  0  0  0  0
   26.4888    5.3179   64.6609 C   0  0  0  0  0  0  0  0  0  0  0  0
   26.1383    2.9269   64.5729 C   0  0  0  0  0  0  0  0  0  0  0  0
   24.7145   10.4015   62.3423 S   0  0  0  0  0  0  0  0  0  0  0  0
   26.6603    9.6647   60.9080 C   0  0  0  0  0  0  0  0  0  0  0  0
   27.7519    5.1490   65.2037 C   0  0  0  0  0  0  0  0  0  0  0  0
   27.4052    2.7007   65.1335 C   0  0  0  0  0  0  0  0  0  0  0  0
   26.2754   10.5590   63.0748 C   0  0  0  0  0  0  0  0  0  0  0  0
   27.1939   10.1048   62.1317 C   0  0  0  0  0  0  0  0  0  0  0  0
   28.2357    3.7719   65.4608 C   0  0  0  0  0  0  0  0  0  0  0  0
   28.5684    6.2289   65.5225 C   0  0  0  0  0  0  0  0  0  0  0  0
   29.4661    3.6045   66.0035 N   0  0  0  0  0  0  0  0  0  0  0  0
   29.8239    5.9754   66.0762 C   0  0  0  0  0  0  0  0  0  0  0  0
   30.2432    4.6632   66.3029 C   0  0  0  0  0  0  0  0  0  0  0  0
  1  2  1  0
  1  3  1  0
  2  4  2  0
  2  5  1  0
  3  6  1  0
  3  7  2  0
  4  8  1  0
  6  9  2  0
  7 10  1  0
  8 11  1  0
 10 12  2  0
 10 13  1  0
 11 14  1  0
 11 15  2  0
 12 16  1  0
 13 17  2  0
 14 18  1  0
 15 19  1  0
 16 20  2  0
 16 21  1  0
 20 22  1  0
 21 23  2  0
 22 24  2  0
  5  6  1  0
 17 20  1  0
 18 19  2  0
 23 24  1  0
M  CHG  1   4   1
M  END
>  <Molecule Name>  (185) 
XOLMRFUGOINFDQ-IRXZHZTGNA-O

>  <hs_clash>  (185) 
2.0

>  <hs_total>  (185) 
75.52840589946554

>  <Total Molweight>  (185) 
352.461

>  <cLogP>  (185) 
2.9926

>  <H-Acceptors>  (185) 
4

>  <H-Donors>  (185) 
2

>  <Polar Surface Area>  (185) 
109.5

>  <Non-H Atoms>  (185) 
24

>  <sp3-Atoms>  (185) 
2

$$$$
OVPNQJVDAFNBDN-XWPUVDKMNA-O
     RDKit          3D

 25 27  0  0  0  0  0  0  0  0999 V2000
   22.2097    5.7459   62.4100 Cl  0  0  0  0  0  0  0  0  0  0  0  0
   23.2576    6.6140   61.3546 C   0  0  0  0  0  0  0  0  0  0  0  0
   24.5811    6.2525   61.2771 C   0  0  0  0  0  0  0  0  0  0  0  0
   22.7483    7.6661   60.5912 C   0  0  0  0  0  0  0  0  0  0  0  0
   25.4110    6.9743   60.4365 C   0  0  0  0  0  0  0  0  0  0  0  0
   25.1169    5.1482   62.1304 C   0  0  0  0  0  0  0  0  0  0  0  0
   23.5862    8.3625   59.7389 C   0  0  0  0  0  0  0  0  0  0  0  0
   27.0727    6.5354   60.3042 Cl  0  0  0  0  0  0  0  0  0  0  0  0
   24.9256    8.0256   59.6691 C   0  0  0  0  0  0  0  0  0  0  0  0
   24.7642    3.9796   61.9708 O   0  0  0  0  0  0  0  0  0  0  0  0
   25.9537    5.5269   63.1166 N   0  0  0  0  0  0  0  0  0  0  0  0
   26.6119    4.6596   63.9868 C   0  0  0  0  0  0  0  0  0  0  0  0
   27.6486    5.0541   64.8120 C   0  0  0  0  0  0  0  0  0  0  0  0
   26.4403    3.3119   64.2182 C   0  0  0  0  0  0  0  0  0  0  0  0
   28.1168    3.9972   65.5448 N   0  0  0  0  0  0  0  0  0  0  0  0
   28.1849    6.4179   64.8945 C   0  0  0  0  0  0  0  0  0  0  0  0
   27.3653    2.9384   65.1480 N   0  0  0  0  0  0  0  0  0  0  0  0
   27.5789    7.3640   64.3620 O   0  0  0  0  0  0  0  0  0  0  0  0
   29.3540    6.5656   65.5715 N   0  0  0  0  0  0  0  0  0  0  0  0
   30.0740    7.8351   65.6304 C   0  0  0  0  0  0  0  0  0  0  0  0
   30.7469    8.0332   66.9948 C   0  0  0  0  0  0  0  0  0  0  0  0
   31.1128    7.9365   64.5115 C   0  0  0  0  0  0  0  0  0  0  0  0
   31.4703    9.3777   67.0370 C   0  0  0  0  0  0  0  0  0  0  0  0
   31.8378    9.2834   64.5865 C   0  0  0  0  0  0  0  0  0  0  0  0
   32.4620    9.4734   65.9260 N   0  0  0  0  0  0  0  0  0  0  0  0
  1  2  1  0
  2  3  2  0
  2  4  1  0
  3  5  1  0
  3  6  1  0
  4  7  2  0
  5  8  1  0
  5  9  2  0
  6 10  2  0
  6 11  1  0
 11 12  1  0
 12 13  1  0
 12 14  2  0
 13 15  2  0
 13 16  1  0
 14 17  1  0
 16 18  2  0
 16 19  1  0
 19 20  1  0
 20 21  1  0
 20 22  1  0
 21 23  1  0
 22 24  1  0
 23 25  1  0
  7  9  1  0
 15 17  1  0
 24 25  1  0
M  CHG  1  25   1
M  END
>  <Molecule Name>  (186) 
OVPNQJVDAFNBDN-XWPUVDKMNA-O

>  <hs_clash>  (186) 
0.0

>  <hs_total>  (186) 
74.71041130376287

>  <Total Molweight>  (186) 
383.258

>  <cLogP>  (186) 
1.3926

>  <H-Acceptors>  (186) 
7

>  <H-Donors>  (186) 
4

>  <Polar Surface Area>  (186) 
103.49

>  <Non-H Atoms>  (186) 
25

>  <sp3-Atoms>  (186) 
6

$$$$
ZXYIRNXOAJYLCU-XBXBPLPCNA-N
     RDKit          3D

 32 36  0  0  0  0  0  0  0  0999 V2000
   24.6273    7.3367   60.6690 S   0  0  0  0  0  0  0  0  0  0  0  0
   25.4988    6.4065   59.8627 O   0  0  0  0  0  0  0  0  0  0  0  0
   23.2182    6.9432   61.0022 O   0  0  0  0  0  0  0  0  0  0  0  0
   25.2706    7.5248   62.1256 N   0  0  0  0  0  0  0  0  0  0  0  0
   24.7551    9.0055   60.0587 C   0  0  0  0  0  0  0  0  0  0  0  0
   25.7160    6.4580   62.8770 C   0  0  0  0  0  0  0  0  0  0  0  0
   25.3080    8.9311   62.5334 C   0  0  0  0  0  0  0  0  0  0  0  0
   24.6963    9.7876   61.3722 C   0  0  0  0  0  0  0  0  0  0  0  0
   26.9795    6.4978   63.5375 C   0  0  0  0  0  0  0  0  0  0  0  0
   24.8861    5.2854   62.9868 C   0  0  0  0  0  0  0  0  0  0  0  0
   27.4310    5.4031   64.2927 C   0  0  0  0  0  0  0  0  0  0  0  0
   25.3167    4.1696   63.7404 C   0  0  0  0  0  0  0  0  0  0  0  0
   28.6306    5.0711   65.0882 C   0  0  0  0  0  0  0  0  0  0  0  0
   26.5540    4.2142   64.3780 C   0  0  0  0  0  0  0  0  0  0  0  0
   28.4448    3.8377   65.5558 N   0  0  0  0  0  0  0  0  0  0  0  0
   29.8302    5.9269   65.3150 N   0  0  0  0  0  0  0  0  0  0  0  0
   27.2529    3.3345   65.1545 N   0  0  0  0  0  0  0  0  0  0  0  0
   30.1915    7.1926   64.9398 C   0  0  0  0  0  0  0  0  0  0  0  0
   29.5367    7.9833   64.2750 O   0  0  0  0  0  0  0  0  0  0  0  0
   31.6187    7.5734   65.4179 C   0  0  0  0  0  0  0  0  0  0  0  0
   31.6167    8.8044   66.2825 C   0  0  0  0  0  0  0  0  0  0  0  0
   31.3540   10.1043   65.7397 C   0  0  0  0  0  0  0  0  0  0  0  0
   31.8724    8.6548   67.6544 C   0  0  0  0  0  0  0  0  0  0  0  0
   31.3561   11.2514   66.6207 C   0  0  0  0  0  0  0  0  0  0  0  0
   31.8748    9.7599   68.5078 C   0  0  0  0  0  0  0  0  0  0  0  0
   31.6230   11.0569   68.0258 C   0  0  0  0  0  0  0  0  0  0  0  0
   31.6493   12.1393   68.9411 N   0  0  0  0  0  0  0  0  0  0  0  0
   32.6362   13.2321   68.7168 C   0  0  0  0  0  0  0  0  0  0  0  0
   30.7208   12.1105   70.1350 C   0  0  0  0  0  0  0  0  0  0  0  0
   32.3831   14.5171   69.5390 C   0  0  0  0  0  0  0  0  0  0  0  0
   30.6512   13.4312   70.9650 C   0  0  0  0  0  0  0  0  0  0  0  0
   32.0144   14.1504   70.9848 C   0  0  0  0  0  0  0  0  0  0  0  0
  1  2  2  0
  1  3  2  0
  1  4  1  0
  1  5  1  0
  4  6  1  0
  4  7  1  0
  5  8  1  0
  6  9  2  0
  6 10  1  0
  9 11  1  0
 10 12  2  0
 11 13  1  0
 11 14  2  0
 13 15  2  0
 13 16  1  0
 14 17  1  0
 16 18  1  0
 18 19  2  0
 18 20  1  0
 20 21  1  0
 21 22  2  0
 21 23  1  0
 22 24  1  0
 23 25  2  0
 24 26  2  0
 26 27  1  0
 27 28  1  0
 27 29  1  0
 28 30  1  0
 29 31  1  0
 30 32  1  0
  7  8  1  0
 12 14  1  0
 15 17  1  0
 25 26  1  0
 31 32  1  0
M  END
>  <Molecule Name>  (187) 
ZXYIRNXOAJYLCU-XBXBPLPCNA-N

>  <hs_clash>  (187) 
0.0

>  <hs_total>  (187) 
74.52506988702476

>  <Total Molweight>  (187) 
453.565

>  <cLogP>  (187) 
2.0231

>  <H-Acceptors>  (187) 
8

>  <H-Donors>  (187) 
2

>  <Polar Surface Area>  (187) 
106.78

>  <Non-H Atoms>  (187) 
32

>  <sp3-Atoms>  (187) 
10

$$$$
HYVABZIGRDEKCD-KZZMUEETNA-N
     RDKit          3D

 15 16  0  0  0  0  0  0  0  0999 V2000
   28.5738    6.8699   64.7770 N   0  0  0  0  0  0  0  0  0  0  0  0
   27.6158    6.6490   63.8651 C   0  0  0  0  0  0  0  0  0  0  0  0
   28.9333    6.0324   65.6941 C   0  0  0  0  0  0  0  0  0  0  0  0
   27.3116    7.6858   62.9174 N   0  0  0  0  0  0  0  0  0  0  0  0
   26.9995    5.3490   63.9279 C   0  0  0  0  0  0  0  0  0  0  0  0
   28.3711    4.8523   65.8604 N   0  0  0  0  0  0  0  0  0  0  0  0
   28.2216    8.7967   62.5661 C   0  0  0  0  0  0  0  0  0  0  0  0
   25.9839    4.7413   63.1590 N   0  0  0  0  0  0  0  0  0  0  0  0
   27.3551    4.4597   64.9228 C   0  0  0  0  0  0  0  0  0  0  0  0
   27.7902   10.2558   62.6275 C   0  0  0  0  0  0  0  0  0  0  0  0
   25.8188    3.5726   63.7518 C   0  0  0  0  0  0  0  0  0  0  0  0
   26.6597    3.3136   64.7869 N   0  0  0  0  0  0  0  0  0  0  0  0
   26.7501   10.9096   62.0444 C   0  0  0  0  0  0  0  0  0  0  0  0
   26.8870   11.4748   60.6271 C   0  0  0  0  0  0  0  0  0  0  0  0
   25.7014   11.6314   62.8667 C   0  0  0  0  0  0  0  0  0  0  0  0
  1  2  2  0
  1  3  1  0
  2  4  1  0
  2  5  1  0
  3  6  2  0
  4  7  1  0
  5  8  1  0
  5  9  2  0
  7 10  1  0
  8 11  2  0
  9 12  1  0
 10 13  2  3
 13 14  1  0
 13 15  1  0
  6  9  1  0
 11 12  1  0
M  END
>  <Molecule Name>  (188) 
HYVABZIGRDEKCD-KZZMUEETNA-N

>  <hs_clash>  (188) 
0.0

>  <hs_total>  (188) 
74.33143944017485

>  <Total Molweight>  (188) 
203.248

>  <cLogP>  (188) 
1.6466

>  <H-Acceptors>  (188) 
5

>  <H-Donors>  (188) 
2

>  <Polar Surface Area>  (188) 
66.49

>  <Non-H Atoms>  (188) 
15

>  <sp3-Atoms>  (188) 
3

$$$$
CXBHMSHVCKEEGW-XJDASBHANA-O
     RDKit          3D

 25 27  0  0  0  0  0  0  0  0999 V2000
   27.0542    6.7824   60.6559 F   0  0  0  0  0  0  0  0  0  0  0  0
   25.7877    7.2396   60.6656 C   0  0  0  0  0  0  0  0  0  0  0  0
   24.8698    6.6229   61.5209 C   0  0  0  0  0  0  0  0  0  0  0  0
   25.4275    8.3078   59.8517 C   0  0  0  0  0  0  0  0  0  0  0  0
   23.5753    7.1111   61.5314 C   0  0  0  0  0  0  0  0  0  0  0  0
   25.2855    5.4846   62.4040 C   0  0  0  0  0  0  0  0  0  0  0  0
   24.1232    8.7697   59.8713 C   0  0  0  0  0  0  0  0  0  0  0  0
   22.6699    6.5203   62.3360 F   0  0  0  0  0  0  0  0  0  0  0  0
   23.1880    8.1698   60.7097 C   0  0  0  0  0  0  0  0  0  0  0  0
   24.7912    4.3381   62.2790 O   0  0  0  0  0  0  0  0  0  0  0  0
   26.2312    5.7830   63.3089 N   0  0  0  0  0  0  0  0  0  0  0  0
   26.8402    4.8838   64.1683 C   0  0  0  0  0  0  0  0  0  0  0  0
   27.9296    5.1963   64.9829 C   0  0  0  0  0  0  0  0  0  0  0  0
   26.5688    3.5653   64.3959 C   0  0  0  0  0  0  0  0  0  0  0  0
   28.3066    4.1115   65.6850 N   0  0  0  0  0  0  0  0  0  0  0  0
   28.6055    6.5201   65.0817 C   0  0  0  0  0  0  0  0  0  0  0  0
   27.4647    3.1233   65.3064 N   0  0  0  0  0  0  0  0  0  0  0  0
   28.0953    7.5204   64.5932 O   0  0  0  0  0  0  0  0  0  0  0  0
   29.7843    6.5690   65.7232 N   0  0  0  0  0  0  0  0  0  0  0  0
   30.5246    7.8244   65.8429 C   0  0  0  0  0  0  0  0  0  0  0  0
   31.6325    7.9316   64.7868 C   0  0  0  0  0  0  0  0  0  0  0  0
   31.1123    7.9917   67.2457 C   0  0  0  0  0  0  0  0  0  0  0  0
   32.4356    9.2355   64.9502 C   0  0  0  0  0  0  0  0  0  0  0  0
   31.8580    9.3201   67.3474 C   0  0  0  0  0  0  0  0  0  0  0  0
   32.9575    9.3692   66.3401 N   0  0  0  0  0  0  0  0  0  0  0  0
  1  2  1  0
  2  3  2  0
  2  4  1  0
  3  5  1  0
  3  6  1  0
  4  7  2  0
  5  8  1  0
  5  9  2  0
  6 10  2  0
  6 11  1  0
 11 12  1  0
 12 13  1  0
 12 14  2  0
 13 15  2  0
 13 16  1  0
 14 17  1  0
 16 18  2  0
 16 19  1  0
 19 20  1  0
 20 21  1  0
 20 22  1  0
 21 23  1  0
 22 24  1  0
 23 25  1  0
  7  9  1  0
 15 17  1  0
 24 25  1  0
M  CHG  1  25   1
M  END
>  <Molecule Name>  (189) 
CXBHMSHVCKEEGW-XJDASBHANA-O

>  <hs_clash>  (189) 
0.0

>  <hs_total>  (189) 
73.84150564552019

>  <Total Molweight>  (189) 
350.348

>  <cLogP>  (189) 
0.3822

>  <H-Acceptors>  (189) 
7

>  <H-Donors>  (189) 
4

>  <Polar Surface Area>  (189) 
103.49

>  <Non-H Atoms>  (189) 
25

>  <sp3-Atoms>  (189) 
6

$$$$
MEZFDQUDLQCVNX-QWOVJGMINA-N
     RDKit          3D

 24 26  0  0  0  0  0  0  0  0999 V2000
   25.2248    7.4152   62.6128 S   0  0  0  0  0  0  0  0  0  0  0  0
   24.8745    5.8685   63.1517 C   0  0  0  0  0  0  0  0  0  0  0  0
   23.8702    7.3405   61.6056 C   0  0  0  0  0  0  0  0  0  0  0  0
   25.7916    5.1677   63.9511 C   0  0  0  0  0  0  0  0  0  0  0  0
   23.6379    5.3384   62.5078 C   0  0  0  0  0  0  0  0  0  0  0  0
   23.0419    6.2827   61.7430 N   0  0  0  0  0  0  0  0  0  0  0  0
   23.4614    8.5749   60.8402 C   0  0  0  0  0  0  0  0  0  0  0  0
   26.9400    5.7359   64.3775 N   0  0  0  0  0  0  0  0  0  0  0  0
   25.5094    3.8845   64.3949 C   0  0  0  0  0  0  0  0  0  0  0  0
   22.8405    4.0726   62.6749 C   0  0  0  0  0  0  0  0  0  0  0  0
   27.8037    5.0709   65.1659 C   0  0  0  0  0  0  0  0  0  0  0  0
   26.4302    3.2241   65.1964 C   0  0  0  0  0  0  0  0  0  0  0  0
   27.5535    3.8296   65.5661 N   0  0  0  0  0  0  0  0  0  0  0  0
   28.9579    5.6016   65.6225 N   0  0  0  0  0  0  0  0  0  0  0  0
   29.4952    6.7981   65.2891 C   0  0  0  0  0  0  0  0  0  0  0  0
   28.8929    7.7508   64.4773 C   0  0  0  0  0  0  0  0  0  0  0  0
   30.7263    7.0628   65.8546 C   0  0  0  0  0  0  0  0  0  0  0  0
   29.5408    8.9601   64.2380 C   0  0  0  0  0  0  0  0  0  0  0  0
   31.3624    8.2702   65.6320 C   0  0  0  0  0  0  0  0  0  0  0  0
   30.7739    9.2387   64.8314 C   0  0  0  0  0  0  0  0  0  0  0  0
   31.5432   10.5229   64.6088 C   0  0  0  0  0  0  0  0  0  0  0  0
   30.7304   11.5408   64.3796 F   0  0  0  0  0  0  0  0  0  0  0  0
   32.3442   10.3773   63.5608 F   0  0  0  0  0  0  0  0  0  0  0  0
   32.2808   10.8032   65.6774 F   0  0  0  0  0  0  0  0  0  0  0  0
  1  2  1  0
  1  3  1  0
  2  4  1  0
  2  5  2  0
  3  6  2  0
  3  7  1  0
  4  8  2  0
  4  9  1  0
  5 10  1  0
  8 11  1  0
  9 12  2  0
 11 13  2  0
 11 14  1  0
 14 15  1  0
 15 16  2  0
 15 17  1  0
 16 18  1  0
 17 19  2  0
 18 20  2  0
 20 21  1  0
 21 22  1  0
 21 23  1  0
 21 24  1  0
  5  6  1  0
 12 13  1  0
 19 20  1  0
M  END
>  <Molecule Name>  (190) 
MEZFDQUDLQCVNX-QWOVJGMINA-N

>  <hs_clash>  (190) 
0.0

>  <hs_total>  (190) 
73.72975811827573

>  <Total Molweight>  (190) 
350.367

>  <cLogP>  (190) 
4.4058

>  <H-Acceptors>  (190) 
4

>  <H-Donors>  (190) 
1

>  <Polar Surface Area>  (190) 
78.94

>  <Non-H Atoms>  (190) 
24

>  <sp3-Atoms>  (190) 
3

$$$$
BWTHJLODYBOEIY-XUAJRXOWNA-N
     RDKit          3D

 23 25  0  0  0  0  0  0  0  0999 V2000
   23.4289    6.5383   60.6501 Br  0  0  0  0  0  0  0  0  0  0  0  0
   24.3604    5.4743   61.8547 C   0  0  0  0  0  0  0  0  0  0  0  0
   25.5095    6.0437   62.6094 C   0  0  0  0  0  0  0  0  0  0  0  0
   23.9587    4.0482   61.9917 C   0  0  0  0  0  0  0  0  0  0  0  0
   26.2242    5.1372   63.5227 C   0  0  0  0  0  0  0  0  0  0  0  0
   24.7408    3.1816   62.8920 C   0  0  0  0  0  0  0  0  0  0  0  0
   27.3401    5.3680   64.3693 C   0  0  0  0  0  0  0  0  0  0  0  0
   25.8580    3.7450   63.6759 C   0  0  0  0  0  0  0  0  0  0  0  0
   28.0879    6.5947   64.5847 N   0  0  0  0  0  0  0  0  0  0  0  0
   27.5722    4.0700   65.0450 C   0  0  0  0  0  0  0  0  0  0  0  0
   26.6871    3.1504   64.5648 N   0  0  0  0  0  0  0  0  0  0  0  0
   29.3044    6.6093   64.8246 N   0  0  0  0  0  0  0  0  0  0  0  0
   28.4411    3.9354   65.9023 O   0  0  0  0  0  0  0  0  0  0  0  0
   30.1147    7.6952   64.7849 C   0  0  0  0  0  0  0  0  0  0  0  0
   31.1498    7.7548   65.8315 C   0  0  0  0  0  0  0  0  0  0  0  0
   30.0546    8.7602   63.7245 C   0  0  0  0  0  0  0  0  0  0  0  0
   32.1429    8.8355   65.8085 C   0  0  0  0  0  0  0  0  0  0  0  0
   31.0328    9.8444   63.7103 C   0  0  0  0  0  0  0  0  0  0  0  0
   32.0806    9.8869   64.7613 C   0  0  0  0  0  0  0  0  0  0  0  0
   33.5169   10.9069   64.6076 S   0  0  0  0  0  0  0  0  0  0  0  0
   34.5814   10.0341   64.1962 O   0  0  0  0  0  0  0  0  0  0  0  0
   33.6309   11.5561   65.8809 O   0  0  0  0  0  0  0  0  0  0  0  0
   33.3382   12.1013   63.4935 N   0  0  0  0  0  0  0  0  0  0  0  0
  1  2  1  0
  2  3  2  0
  2  4  1  0
  3  5  1  0
  4  6  2  0
  5  7  2  0
  5  8  1  0
  7  9  1  0
  7 10  1  0
  8 11  2  0
  9 12  2  0
 10 13  2  0
 12 14  1  0
 14 15  2  0
 14 16  1  0
 15 17  1  0
 16 18  2  0
 17 19  2  0
 19 20  1  0
 20 21  2  0
 20 22  2  0
 20 23  1  0
  6  8  1  0
 10 11  1  0
 18 19  1  0
M  END
>  <Molecule Name>  (191) 
BWTHJLODYBOEIY-XUAJRXOWNA-N

>  <hs_clash>  (191) 
11.0

>  <hs_total>  (191) 
72.24013490449857

>  <Total Molweight>  (191) 
393.220

>  <cLogP>  (191) 
1.1928

>  <H-Acceptors>  (191) 
7

>  <H-Donors>  (191) 
1

>  <Polar Surface Area>  (191) 
122.69

>  <Non-H Atoms>  (191) 
23

>  <sp3-Atoms>  (191) 
1

$$$$
NLHYHLPSUOFMHW-DXMPFREMNA-N
     RDKit          3D

 16 17  0  0  0  0  0  0  0  0999 V2000
   27.9630    6.2391   64.0698 S   0  0  0  0  0  0  0  0  0  0  0  0
   28.9317    5.3270   65.1568 C   0  0  0  0  0  0  0  0  0  0  0  0
   26.9874    4.8813   63.7927 C   0  0  0  0  0  0  0  0  0  0  0  0
   28.5321    4.0620   65.3085 N   0  0  0  0  0  0  0  0  0  0  0  0
   30.0204    5.8212   65.8633 N   0  0  0  0  0  0  0  0  0  0  0  0
   27.4316    3.7973   64.5419 C   0  0  0  0  0  0  0  0  0  0  0  0
   25.8158    4.9077   62.8551 C   0  0  0  0  0  0  0  0  0  0  0  0
   30.7686    6.9595   65.6669 C   0  0  0  0  0  0  0  0  0  0  0  0
   26.8604    2.5921   64.5352 N   0  0  0  0  0  0  0  0  0  0  0  0
   25.1133    3.9029   62.6727 O   0  0  0  0  0  0  0  0  0  0  0  0
   25.5843    6.0689   62.2260 N   0  0  0  0  0  0  0  0  0  0  0  0
   30.5705    7.9797   64.5346 C   0  0  0  0  0  0  0  0  0  0  0  0
   31.8407    7.2124   66.6545 C   0  0  0  0  0  0  0  0  0  0  0  0
   31.3920    9.1412   64.4275 C   0  0  0  0  0  0  0  0  0  0  0  0
   32.6642    8.3959   66.5419 C   0  0  0  0  0  0  0  0  0  0  0  0
   32.4535    9.3670   65.4369 C   0  0  0  0  0  0  0  0  0  0  0  0
  1  2  1  0
  1  3  1  0
  2  4  2  0
  2  5  1  0
  3  6  2  0
  3  7  1  0
  5  8  1  0
  6  9  1  0
  7 10  2  0
  7 11  1  0
  8 12  2  0
  8 13  1  0
 12 14  1  0
 13 15  2  0
 14 16  2  0
  4  6  1  0
 15 16  1  0
M  END
>  <Molecule Name>  (192) 
NLHYHLPSUOFMHW-DXMPFREMNA-N

>  <hs_clash>  (192) 
0.0

>  <hs_total>  (192) 
72.02363584380495

>  <Total Molweight>  (192) 
234.282

>  <cLogP>  (192) 
1.6589

>  <H-Acceptors>  (192) 
5

>  <H-Donors>  (192) 
3

>  <Polar Surface Area>  (192) 
122.27

>  <Non-H Atoms>  (192) 
16

>  <sp3-Atoms>  (192) 
0

$$$$
FGGSNQOBRJVAKL-UYBDAZJANA-N
     RDKit          3D

 23 25  0  0  0  0  0  0  0  0999 V2000
   25.1533    7.4471   62.5129 S   0  0  0  0  0  0  0  0  0  0  0  0
   24.9876    5.8420   63.0018 C   0  0  0  0  0  0  0  0  0  0  0  0
   23.7137    7.2697   61.6302 C   0  0  0  0  0  0  0  0  0  0  0  0
   25.7989    5.0743   63.8358 C   0  0  0  0  0  0  0  0  0  0  0  0
   23.7745    5.2525   62.4357 C   0  0  0  0  0  0  0  0  0  0  0  0
   23.0934    6.0925   61.6460 N   0  0  0  0  0  0  0  0  0  0  0  0
   23.1256    8.3567   60.7733 C   0  0  0  0  0  0  0  0  0  0  0  0
   26.8766    5.6395   64.3429 N   0  0  0  0  0  0  0  0  0  0  0  0
   25.5435    3.7475   64.1839 C   0  0  0  0  0  0  0  0  0  0  0  0
   23.2241    3.8789   62.5995 C   0  0  0  0  0  0  0  0  0  0  0  0
   27.7087    4.9935   65.1614 C   0  0  0  0  0  0  0  0  0  0  0  0
   26.4499    3.0666   64.9998 C   0  0  0  0  0  0  0  0  0  0  0  0
   27.5136    3.6933   65.5199 N   0  0  0  0  0  0  0  0  0  0  0  0
   28.8138    5.6517   65.6013 N   0  0  0  0  0  0  0  0  0  0  0  0
   29.2947    6.9139   65.4111 C   0  0  0  0  0  0  0  0  0  0  0  0
   30.4710    7.1914   66.0894 C   0  0  0  0  0  0  0  0  0  0  0  0
   28.7182    7.9315   64.6585 C   0  0  0  0  0  0  0  0  0  0  0  0
   31.0892    8.4299   66.0363 C   0  0  0  0  0  0  0  0  0  0  0  0
   29.3556    9.1710   64.5756 C   0  0  0  0  0  0  0  0  0  0  0  0
   30.5381    9.4305   65.2637 C   0  0  0  0  0  0  0  0  0  0  0  0
   31.1639   10.6358   65.2266 N   0  0  0  0  0  0  0  0  0  0  0  0
   30.6216   11.7311   64.4395 C   0  0  0  0  0  0  0  0  0  0  0  0
   32.3957   10.8506   65.9725 C   0  0  0  0  0  0  0  0  0  0  0  0
  1  2  1  0
  1  3  1  0
  2  4  1  0
  2  5  2  0
  3  6  2  0
  3  7  1  0
  4  8  2  0
  4  9  1  0
  5 10  1  0
  8 11  1  0
  9 12  2  0
 11 13  2  0
 11 14  1  0
 14 15  1  0
 15 16  2  0
 15 17  1  0
 16 18  1  0
 17 19  2  0
 18 20  2  0
 20 21  1  0
 21 22  1  0
 21 23  1  0
  5  6  1  0
 12 13  1  0
 19 20  1  0
M  END
>  <Molecule Name>  (193) 
FGGSNQOBRJVAKL-UYBDAZJANA-N

>  <hs_clash>  (193) 
0.0

>  <hs_total>  (193) 
71.51128304079894

>  <Total Molweight>  (193) 
325.439

>  <cLogP>  (193) 
3.4539

>  <H-Acceptors>  (193) 
5

>  <H-Donors>  (193) 
1

>  <Polar Surface Area>  (193) 
82.18

>  <Non-H Atoms>  (193) 
23

>  <sp3-Atoms>  (193) 
4

$$$$
ZMWYSLJBNJUCRK-IEJAXPBYNA-N
     RDKit          3D

 24 26  0  0  0  0  0  0  0  0999 V2000
   33.3502   10.5106   66.3313 F   0  0  0  0  0  0  0  0  0  0  0  0
   32.4923    9.4864   66.1623 C   0  0  0  0  0  0  0  0  0  0  0  0
   32.0266    9.1978   64.8935 C   0  0  0  0  0  0  0  0  0  0  0  0
   32.1125    8.7462   67.2630 C   0  0  0  0  0  0  0  0  0  0  0  0
   31.1555    8.1357   64.7225 C   0  0  0  0  0  0  0  0  0  0  0  0
   31.2513    7.6801   67.0930 C   0  0  0  0  0  0  0  0  0  0  0  0
   30.7668    7.3615   65.8222 C   0  0  0  0  0  0  0  0  0  0  0  0
   29.8736    6.2854   65.6552 N   0  0  0  0  0  0  0  0  0  0  0  0
   28.7494    6.3533   64.9327 C   0  0  0  0  0  0  0  0  0  0  0  0
   28.3948    7.3886   64.3696 O   0  0  0  0  0  0  0  0  0  0  0  0
   27.9488    5.1114   64.8391 C   0  0  0  0  0  0  0  0  0  0  0  0
   28.2690    4.0510   65.5714 N   0  0  0  0  0  0  0  0  0  0  0  0
   26.8185    4.8320   64.0536 C   0  0  0  0  0  0  0  0  0  0  0  0
   27.3572    3.0955   65.2531 N   0  0  0  0  0  0  0  0  0  0  0  0
   26.2254    5.7261   63.1802 N   0  0  0  0  0  0  0  0  0  0  0  0
   26.4759    3.5251   64.3551 C   0  0  0  0  0  0  0  0  0  0  0  0
   25.0994    5.5270   62.4574 C   0  0  0  0  0  0  0  0  0  0  0  0
   24.4435    4.4861   62.5122 O   0  0  0  0  0  0  0  0  0  0  0  0
   24.6801    6.6664   61.5841 C   0  0  0  0  0  0  0  0  0  0  0  0
   23.3440    7.0401   61.5066 C   0  0  0  0  0  0  0  0  0  0  0  0
   25.6256    7.3787   60.8525 C   0  0  0  0  0  0  0  0  0  0  0  0
   22.9613    8.1037   60.7094 C   0  0  0  0  0  0  0  0  0  0  0  0
   25.2381    8.4403   60.0552 C   0  0  0  0  0  0  0  0  0  0  0  0
   23.9068    8.8009   59.9830 C   0  0  0  0  0  0  0  0  0  0  0  0
  1  2  1  0
  2  3  2  0
  2  4  1  0
  3  5  1  0
  4  6  2  0
  5  7  2  0
  7  8  1  0
  8  9  1  0
  9 10  2  0
  9 11  1  0
 11 12  2  0
 11 13  1  0
 12 14  1  0
 13 15  1  0
 13 16  2  0
 15 17  1  0
 17 18  2  0
 17 19  1  0
 19 20  2  0
 19 21  1  0
 20 22  1  0
 21 23  2  0
 22 24  2  0
  6  7  1  0
 14 16  1  0
 23 24  1  0
M  END
>  <Molecule Name>  (194) 
ZMWYSLJBNJUCRK-IEJAXPBYNA-N

>  <hs_clash>  (194) 
0.0

>  <hs_total>  (194) 
71.12312104060206

>  <Total Molweight>  (194) 
324.314

>  <cLogP>  (194) 
2.003

>  <H-Acceptors>  (194) 
6

>  <H-Donors>  (194) 
3

>  <Polar Surface Area>  (194) 
86.88

>  <Non-H Atoms>  (194) 
24

>  <sp3-Atoms>  (194) 
0

$$$$
VIZAOCOKGQUJRZ-UHFFFAOYNA-N
     RDKit          3D

 15 16  0  0  0  0  0  0  0  0999 V2000
   28.4502    4.6587   65.4769 Cl  0  0  0  0  0  0  0  0  0  0  0  0
   27.1233    4.8859   64.3804 C   0  0  0  0  0  0  0  0  0  0  0  0
   26.9112    6.1384   63.8017 C   0  0  0  0  0  0  0  0  0  0  0  0
   26.2670    3.8301   64.1332 C   0  0  0  0  0  0  0  0  0  0  0  0
   27.5939    7.3235   63.9239 N   0  0  0  0  0  0  0  0  0  0  0  0
   25.7910    6.3618   62.9382 C   0  0  0  0  0  0  0  0  0  0  0  0
   25.1794    4.0097   63.2942 C   0  0  0  0  0  0  0  0  0  0  0  0
   26.9886    8.2798   63.1878 C   0  0  0  0  0  0  0  0  0  0  0  0
   24.9392    5.2444   62.7048 C   0  0  0  0  0  0  0  0  0  0  0  0
   25.8955    7.7224   62.5711 C   0  0  0  0  0  0  0  0  0  0  0  0
   23.5509    5.3873   61.6720 Cl  0  0  0  0  0  0  0  0  0  0  0  0
   25.0922    8.5559   61.7356 C   0  0  0  0  0  0  0  0  0  0  0  0
   24.4192    9.2540   61.0323 C   0  0  0  0  0  0  0  0  0  0  0  0
   23.5998   10.1092   60.1735 C   0  0  0  0  0  0  0  0  0  0  0  0
   22.2252    9.7538   60.2244 O   0  0  0  0  0  0  0  0  0  0  0  0
  1  2  1  0
  2  3  2  0
  2  4  1  0
  3  5  1  0
  3  6  1  0
  4  7  2  0
  5  8  1  0
  6  9  2  0
  6 10  1  0
  9 11  1  0
 10 12  1  0
 12 13  3  0
 13 14  1  0
 14 15  1  0
  7  9  1  0
  8 10  2  0
M  END
>  <Molecule Name>  (195) 
VIZAOCOKGQUJRZ-UHFFFAOYNA-N

>  <hs_clash>  (195) 
0.0

>  <hs_total>  (195) 
70.89650855824274

>  <Total Molweight>  (195) 
240.089

>  <cLogP>  (195) 
3.0056

>  <H-Acceptors>  (195) 
2

>  <H-Donors>  (195) 
2

>  <Polar Surface Area>  (195) 
36.02

>  <Non-H Atoms>  (195) 
15

>  <sp3-Atoms>  (195) 
2

$$$$
GVUPVQFCLXGOQY-NNAGBOQDNA-M
     RDKit          3D

 23 25  0  0  0  0  0  0  0  0999 V2000
   33.2000   10.6833   64.6357 S   0  0  0  0  0  0  0  0  0  0  0  0
   34.3529   10.1597   63.8520 O   0  0  0  0  0  0  0  0  0  0  0  0
   33.6465   11.0134   66.0283 O   0  0  0  0  0  0  0  0  0  0  0  0
   32.6225   12.0386   63.9135 N   0  0  0  0  0  0  0  0  0  0  0  0
   31.9328    9.4404   64.6944 C   0  0  0  0  0  0  0  0  0  0  0  0
   30.9192    9.4452   63.7494 C   0  0  0  0  0  0  0  0  0  0  0  0
   31.9821    8.4222   65.6649 C   0  0  0  0  0  0  0  0  0  0  0  0
   29.9419    8.4583   63.7739 C   0  0  0  0  0  0  0  0  0  0  0  0
   30.9938    7.4274   65.6885 C   0  0  0  0  0  0  0  0  0  0  0  0
   29.9704    7.4552   64.7480 C   0  0  0  0  0  0  0  0  0  0  0  0
   28.9240    6.4384   64.7486 C   0  0  0  0  0  0  0  0  0  0  0  0
   27.7673    6.5104   64.0419 O   0  0  0  0  0  0  0  0  0  0  0  0
   28.9369    5.2493   65.4007 C   0  0  0  0  0  0  0  0  0  0  0  0
   27.0833    5.4228   64.2280 C   0  0  0  0  0  0  0  0  0  0  0  0
   27.7867    4.6136   65.0856 C   0  0  0  0  0  0  0  0  0  0  0  0
   25.7931    5.1270   63.6301 C   0  0  0  0  0  0  0  0  0  0  0  0
   25.3619    5.8176   62.4724 C   0  0  0  0  0  0  0  0  0  0  0  0
   26.3334    6.8253   61.5185 S   0  0  0  0  0  0  0  0  0  0  0  0
   24.0760    5.7397   61.9568 C   0  0  0  0  0  0  0  0  0  0  0  0
   25.0867    7.1447   60.4719 C   0  0  0  0  0  0  0  0  0  0  0  0
   23.1664    5.0790   62.4619 O   0  0  0  0  0  0  0  0  0  0  0  0
   23.9405    6.4943   60.8230 N   0  0  0  0  0  0  0  0  0  0  0  0
   25.1878    7.8797   59.4871 O   0  0  0  0  0  0  0  0  0  0  0  0
  1  2  2  0
  1  3  2  0
  1  4  1  0
  1  5  1  0
  5  6  2  0
  5  7  1  0
  6  8  1  0
  7  9  2  0
  8 10  2  0
 10 11  1  0
 11 12  1  0
 11 13  2  0
 12 14  1  0
 13 15  1  0
 14 16  1  0
 16 17  2  0
 17 18  1  0
 17 19  1  0
 18 20  1  0
 19 21  2  0
 19 22  1  0
 20 23  2  0
  9 10  1  0
 14 15  2  0
 20 22  1  0
M  CHG  1  22  -1
M  END
>  <Molecule Name>  (196) 
GVUPVQFCLXGOQY-NNAGBOQDNA-M

>  <hs_clash>  (196) 
3.0

>  <hs_total>  (196) 
70.0635664549551

>  <Total Molweight>  (196) 
349.366

>  <cLogP>  (196) 
0.9312

>  <H-Acceptors>  (196) 
7

>  <H-Donors>  (196) 
1

>  <Polar Surface Area>  (196) 
141.12

>  <Non-H Atoms>  (196) 
23

>  <sp3-Atoms>  (196) 
2

$$$$
RSNSGNZRUMHXAY-RWJRRMEYNA-N
     RDKit          3D

 18 19  0  0  0  0  0  0  0  0999 V2000
   25.2853    4.0345   63.2000 Cl  0  0  0  0  0  0  0  0  0  0  0  0
   26.6103    4.6630   64.1264 C   0  0  0  0  0  0  0  0  0  0  0  0
   26.8709    5.9624   63.9736 N   0  0  0  0  0  0  0  0  0  0  0  0
   27.3299    3.8204   64.9466 C   0  0  0  0  0  0  0  0  0  0  0  0
   27.9043    6.4177   64.6998 C   0  0  0  0  0  0  0  0  0  0  0  0
   28.3552    4.2845   65.6645 N   0  0  0  0  0  0  0  0  0  0  0  0
   28.1723    7.7832   64.5515 N   0  0  0  0  0  0  0  0  0  0  0  0
   28.6330    5.5843   65.5376 C   0  0  0  0  0  0  0  0  0  0  0  0
   29.3817    8.4951   64.5707 C   0  0  0  0  0  0  0  0  0  0  0  0
   29.3849    9.8836   64.4329 C   0  0  0  0  0  0  0  0  0  0  0  0
   30.5898    7.8239   64.7395 C   0  0  0  0  0  0  0  0  0  0  0  0
   30.5703   10.5859   64.4615 C   0  0  0  0  0  0  0  0  0  0  0  0
   31.7753    8.5261   64.7649 C   0  0  0  0  0  0  0  0  0  0  0  0
   31.7673    9.9035   64.6186 C   0  0  0  0  0  0  0  0  0  0  0  0
   33.2901   10.7975   64.6435 S   0  0  0  0  0  0  0  0  0  0  0  0
   33.0664   12.0499   63.9691 O   0  0  0  0  0  0  0  0  0  0  0  0
   34.3099    9.9061   64.1443 O   0  0  0  0  0  0  0  0  0  0  0  0
   33.6412   11.1199   66.1726 N   0  0  0  0  0  0  0  0  0  0  0  0
  1  2  1  0
  2  3  2  0
  2  4  1  0
  3  5  1  0
  4  6  2  0
  5  7  1  0
  5  8  2  0
  7  9  1  0
  9 10  2  0
  9 11  1  0
 10 12  1  0
 11 13  2  0
 12 14  2  0
 14 15  1  0
 15 16  2  0
 15 17  2  0
 15 18  1  0
  6  8  1  0
 13 14  1  0
M  END
>  <Molecule Name>  (197) 
RSNSGNZRUMHXAY-RWJRRMEYNA-N

>  <hs_clash>  (197) 
3.0

>  <hs_total>  (197) 
67.82400405090678

>  <Total Molweight>  (197) 
284.726

>  <cLogP>  (197) 
1.007

>  <H-Acceptors>  (197) 
6

>  <H-Donors>  (197) 
2

>  <Polar Surface Area>  (197) 
106.35

>  <Non-H Atoms>  (197) 
18

>  <sp3-Atoms>  (197) 
1

$$$$
SSEDQERECATUBR-DXAUXPAJNA-N
     RDKit          3D

 33 36  0  0  0  0  0  0  0  0999 V2000
   30.0830   10.5700   63.3354 S   0  0  0  0  0  0  0  0  0  0  0  0
   31.3593   11.1001   62.9381 O   0  0  0  0  0  0  0  0  0  0  0  0
   29.5885    9.7102   62.2942 O   0  0  0  0  0  0  0  0  0  0  0  0
   28.9691   11.7500   63.5750 N   0  0  0  0  0  0  0  0  0  0  0  0
   30.2459    9.6776   64.9081 C   0  0  0  0  0  0  0  0  0  0  0  0
   29.2728   12.8139   62.7974 C   0  0  0  0  0  0  0  0  0  0  0  0
   27.7167   11.4207   63.9735 C   0  0  0  0  0  0  0  0  0  0  0  0
   31.0218   10.2250   65.9611 C   0  0  0  0  0  0  0  0  0  0  0  0
   29.5856    8.4254   65.0899 C   0  0  0  0  0  0  0  0  0  0  0  0
   28.4305   13.9943   63.1584 C   0  0  0  0  0  0  0  0  0  0  0  0
   26.8505   12.6125   64.2074 C   0  0  0  0  0  0  0  0  0  0  0  0
   31.1481    9.5416   67.1606 C   0  0  0  0  0  0  0  0  0  0  0  0
   31.7297   11.5334   65.8334 C   0  0  0  0  0  0  0  0  0  0  0  0
   29.7222    7.7379   66.3053 C   0  0  0  0  0  0  0  0  0  0  0  0
   27.0213   13.6366   63.1853 O   0  0  0  0  0  0  0  0  0  0  0  0
   30.4974    8.2963   67.3333 C   0  0  0  0  0  0  0  0  0  0  0  0
   29.0857    6.4479   66.5896 N   0  0  0  0  0  0  0  0  0  0  0  0
   28.0497    5.8220   65.8068 C   0  0  0  0  0  0  0  0  0  0  0  0
   27.0911    6.5631   65.2023 N   0  0  0  0  0  0  0  0  0  0  0  0
   28.0514    4.4897   65.7221 N   0  0  0  0  0  0  0  0  0  0  0  0
   26.1112    5.9800   64.4651 C   0  0  0  0  0  0  0  0  0  0  0  0
   27.1054    3.8403   65.0187 C   0  0  0  0  0  0  0  0  0  0  0  0
   26.0893    4.5862   64.3548 C   0  0  0  0  0  0  0  0  0  0  0  0
   25.0699    6.8995   63.8028 C   0  0  0  0  0  0  0  0  0  0  0  0
   25.0515    3.8566   63.5637 C   0  0  0  0  0  0  0  0  0  0  0  0
   25.4629    8.3247   63.1037 S   0  0  0  0  0  0  0  0  0  0  0  0
   23.6340    6.6976   63.7215 C   0  0  0  0  0  0  0  0  0  0  0  0
   24.2586    3.2694   62.9608 N   0  0  0  0  0  0  0  0  0  0  0  0
   23.9574    8.8261   62.6284 C   0  0  0  0  0  0  0  0  0  0  0  0
   22.9884    7.8646   63.0061 N   0  0  0  0  0  0  0  0  0  0  0  0
   22.8310    5.5096   64.2570 C   0  0  0  0  0  0  0  0  0  0  0  0
   23.6303   10.0675   61.9204 N   0  0  0  0  0  0  0  0  0  0  0  0
   22.2593   10.4448   61.7477 C   0  0  0  0  0  0  0  0  0  0  0  0
  1  2  2  0
  1  3  2  0
  1  4  1  0
  1  5  1  0
  4  6  1  0
  4  7  1  0
  5  8  2  0
  5  9  1  0
  6 10  1  0
  7 11  1  0
  8 12  1  0
  8 13  1  0
  9 14  2  0
 10 15  1  0
 12 16  2  0
 14 17  1  0
 17 18  1  0
 18 19  2  0
 18 20  1  0
 19 21  1  0
 20 22  2  0
 21 23  2  0
 21 24  1  0
 23 25  1  0
 24 26  1  0
 24 27  2  0
 25 28  3  0
 26 29  1  0
 27 30  1  0
 27 31  1  0
 29 32  1  0
 32 33  1  0
 11 15  1  0
 14 16  1  0
 22 23  1  0
 29 30  2  0
M  END
>  <Molecule Name>  (198) 
SSEDQERECATUBR-DXAUXPAJNA-N

>  <hs_clash>  (198) 
14.0

>  <hs_total>  (198) 
67.54449192616669

>  <Total Molweight>  (198) 
485.592

>  <cLogP>  (198) 
2.8781

>  <H-Acceptors>  (198) 
10

>  <H-Donors>  (198) 
2

>  <Polar Surface Area>  (198) 
169.75

>  <Non-H Atoms>  (198) 
33

>  <sp3-Atoms>  (198) 
9

$$$$
ATWKNNOBDMPYCY-QLBRQLNVNA-M
     RDKit          3D

 16 17  0  0  0  0  0  0  0  0999 V2000
   28.6752    4.0973   65.4249 O   0  0  0  0  0  0  0  0  0  0  0  0
   27.6459    4.3624   64.5674 C   0  0  0  0  0  0  0  0  0  0  0  0
   27.5387    5.6471   63.9058 C   0  0  0  0  0  0  0  0  0  0  0  0
   26.6759    3.3554   64.3211 C   0  0  0  0  0  0  0  0  0  0  0  0
   28.4759    6.6379   64.1152 C   0  0  0  0  0  0  0  0  0  0  0  0
   26.4395    5.8732   63.0060 C   0  0  0  0  0  0  0  0  0  0  0  0
   25.5970    3.5953   63.4287 C   0  0  0  0  0  0  0  0  0  0  0  0
   29.4791    6.3813   64.9950 N   0  0  0  0  0  0  0  0  0  0  0  0
   28.3376    7.7943   63.4109 N   0  0  0  0  0  0  0  0  0  0  0  0
   25.4770    4.8515   62.7720 C   0  0  0  0  0  0  0  0  0  0  0  0
   30.3699    7.3784   65.1366 C   0  0  0  0  0  0  0  0  0  0  0  0
   29.3049    8.7123   63.6526 C   0  0  0  0  0  0  0  0  0  0  0  0
   24.4751    5.0585   61.9395 C   0  0  0  0  0  0  0  0  0  0  0  0
   30.3457    8.5662   64.4984 N   0  0  0  0  0  0  0  0  0  0  0  0
   31.3254    7.1800   65.9465 N   0  0  0  0  0  0  0  0  0  0  0  0
   23.5994    5.2264   61.1958 N   0  0  0  0  0  0  0  0  0  0  0  0
  1  2  1  0
  2  3  2  0
  2  4  1  0
  3  5  1  0
  3  6  1  0
  4  7  2  0
  5  8  2  0
  5  9  1  0
  6 10  2  0
  8 11  1  0
  9 12  2  0
 10 13  1  0
 11 14  2  0
 11 15  1  0
 13 16  3  0
  7 10  1  0
 12 14  1  0
M  CHG  1   1  -1
M  END
>  <Molecule Name>  (199) 
ATWKNNOBDMPYCY-QLBRQLNVNA-M

>  <hs_clash>  (199) 
0.0

>  <hs_total>  (199) 
67.53472850303864

>  <Total Molweight>  (199) 
212.192

>  <cLogP>  (199) 
-0.7802

>  <H-Acceptors>  (199) 
6

>  <H-Donors>  (199) 
1

>  <Polar Surface Area>  (199) 
111.54

>  <Non-H Atoms>  (199) 
16

>  <sp3-Atoms>  (199) 
1

$$$$
WCNPGRRMPFCHEO-QWOVJGMINA-N
     RDKit          3D

 24 27  0  0  0  0  0  0  0  0999 V2000
   28.3066    4.1842   65.7192 F   0  0  0  0  0  0  0  0  0  0  0  0
   27.4975    4.5957   64.7659 C   0  0  0  0  0  0  0  0  0  0  0  0
   27.5973    5.8999   64.1686 C   0  0  0  0  0  0  0  0  0  0  0  0
   26.4969    3.7061   64.3704 C   0  0  0  0  0  0  0  0  0  0  0  0
   28.6864    6.8891   64.4531 C   0  0  0  0  0  0  0  0  0  0  0  0
   26.6738    6.2179   63.1592 C   0  0  0  0  0  0  0  0  0  0  0  0
   25.5913    4.0482   63.3585 C   0  0  0  0  0  0  0  0  0  0  0  0
   28.8664    7.8754   63.5050 N   0  0  0  0  0  0  0  0  0  0  0  0
   29.5383    6.8282   65.5509 C   0  0  0  0  0  0  0  0  0  0  0  0
   25.6671    5.3153   62.7715 C   0  0  0  0  0  0  0  0  0  0  0  0
   29.8476    8.7501   63.6083 C   0  0  0  0  0  0  0  0  0  0  0  0
   30.5806    7.6880   65.6494 N   0  0  0  0  0  0  0  0  0  0  0  0
   30.0763    9.7495   62.7056 N   0  0  0  0  0  0  0  0  0  0  0  0
   30.7552    8.6686   64.7411 C   0  0  0  0  0  0  0  0  0  0  0  0
   31.5492    7.8378   66.6199 C   0  0  0  0  0  0  0  0  0  0  0  0
   29.2460    9.7182   61.4970 C   0  0  0  0  0  0  0  0  0  0  0  0
   31.7890    9.4671   65.0768 N   0  0  0  0  0  0  0  0  0  0  0  0
   32.2777    8.9384   66.2247 C   0  0  0  0  0  0  0  0  0  0  0  0
   28.0396   10.5796   61.7042 C   0  0  0  0  0  0  0  0  0  0  0  0
   26.7493   10.0290   61.7467 C   0  0  0  0  0  0  0  0  0  0  0  0
   28.1586   11.9714   61.8722 C   0  0  0  0  0  0  0  0  0  0  0  0
   25.6271   10.7335   61.9412 N   0  0  0  0  0  0  0  0  0  0  0  0
   26.9953   12.7318   62.0754 C   0  0  0  0  0  0  0  0  0  0  0  0
   25.7628   12.0693   62.1176 C   0  0  0  0  0  0  0  0  0  0  0  0
  1  2  1  0
  2  3  2  0
  2  4  1  0
  3  5  1  0
  3  6  1  0
  4  7  2  0
  5  8  1  0
  5  9  2  0
  6 10  2  0
  8 11  2  0
  9 12  1  0
 11 13  1  0
 11 14  1  0
 12 15  1  0
 13 16  1  0
 14 17  2  0
 15 18  2  0
 16 19  1  0
 19 20  2  0
 19 21  1  0
 20 22  1  0
 21 23  2  0
 22 24  2  0
  7 10  1  0
 12 14  1  0
 17 18  1  0
 23 24  1  0
M  END
>  <Molecule Name>  (200) 
WCNPGRRMPFCHEO-QWOVJGMINA-N

>  <hs_clash>  (200) 
0.0

>  <hs_total>  (200) 
67.45314254966752

>  <Total Molweight>  (200) 
319.342

>  <cLogP>  (200) 
1.8678

>  <H-Acceptors>  (200) 
5

>  <H-Donors>  (200) 
1

>  <Polar Surface Area>  (200) 
55.11

>  <Non-H Atoms>  (200) 
24

>  <sp3-Atoms>  (200) 
1

$$$$
XTIMXWZYVZMPGC-QXYMKYIANA-N
     RDKit          3D

 28 30  0  0  0  0  0  0  0  0999 V2000
   33.3289   10.6318   64.9548 S   0  0  0  0  0  0  0  0  0  0  0  0
   34.3822   10.1962   64.0329 O   0  0  0  0  0  0  0  0  0  0  0  0
   33.7171   11.1214   66.3057 O   0  0  0  0  0  0  0  0  0  0  0  0
   32.3925   11.8372   64.1988 N   0  0  0  0  0  0  0  0  0  0  0  0
   32.2827    9.2445   65.2122 C   0  0  0  0  0  0  0  0  0  0  0  0
   32.4481    8.4418   66.3931 C   0  0  0  0  0  0  0  0  0  0  0  0
   31.3102    8.9277   64.2261 C   0  0  0  0  0  0  0  0  0  0  0  0
   31.6388    7.2961   66.5798 C   0  0  0  0  0  0  0  0  0  0  0  0
   30.5069    7.7886   64.4103 C   0  0  0  0  0  0  0  0  0  0  0  0
   30.6629    6.9598   65.5842 C   0  0  0  0  0  0  0  0  0  0  0  0
   29.9582    5.8459   65.7036 N   0  0  0  0  0  0  0  0  0  0  0  0
   28.7827    5.3570   65.1801 C   0  0  0  0  0  0  0  0  0  0  0  0
   27.6992    6.2611   64.0966 S   0  0  0  0  0  0  0  0  0  0  0  0
   28.3921    4.1203   65.4296 N   0  0  0  0  0  0  0  0  0  0  0  0
   26.7063    4.8045   63.9972 C   0  0  0  0  0  0  0  0  0  0  0  0
   27.2228    3.7901   64.7643 C   0  0  0  0  0  0  0  0  0  0  0  0
   25.4928    4.8063   63.1434 C   0  0  0  0  0  0  0  0  0  0  0  0
   26.6826    2.5225   64.8934 N   0  0  0  0  0  0  0  0  0  0  0  0
   24.8584    3.7546   63.0279 O   0  0  0  0  0  0  0  0  0  0  0  0
   25.1524    5.9664   62.5301 N   0  0  0  0  0  0  0  0  0  0  0  0
   24.0416    6.2133   61.6757 C   0  0  0  0  0  0  0  0  0  0  0  0
   24.1439    7.2930   60.7439 C   0  0  0  0  0  0  0  0  0  0  0  0
   22.8328    5.4288   61.7157 C   0  0  0  0  0  0  0  0  0  0  0  0
   23.0443    7.5801   59.8683 C   0  0  0  0  0  0  0  0  0  0  0  0
   21.7484    5.7129   60.8470 C   0  0  0  0  0  0  0  0  0  0  0  0
   23.1354    8.5893   58.9847 F   0  0  0  0  0  0  0  0  0  0  0  0
   21.8477    6.7897   59.9213 C   0  0  0  0  0  0  0  0  0  0  0  0
   20.6251    4.9520   60.9063 F   0  0  0  0  0  0  0  0  0  0  0  0
  1  2  2  0
  1  3  2  0
  1  4  1  0
  1  5  1  0
  5  6  2  0
  5  7  1  0
  6  8  1  0
  7  9  2  0
  8 10  2  0
 10 11  1  0
 11 12  1  0
 12 13  1  0
 12 14  2  0
 13 15  1  0
 14 16  1  0
 15 17  1  0
 16 18  1  0
 17 19  2  0
 17 20  1  0
 20 21  1  0
 21 22  2  0
 21 23  1  0
 22 24  1  0
 23 25  2  0
 24 26  1  0
 24 27  2  0
 25 28  1  0
  9 10  1  0
 15 16  2  0
 25 27  1  0
M  END
>  <Molecule Name>  (201) 
XTIMXWZYVZMPGC-QXYMKYIANA-N

>  <hs_clash>  (201) 
9.0

>  <hs_total>  (201) 
67.41291818013023

>  <Total Molweight>  (201) 
425.439

>  <cLogP>  (201) 
2.6847

>  <H-Acceptors>  (201) 
8

>  <H-Donors>  (201) 
4

>  <Polar Surface Area>  (201) 
176.82

>  <Non-H Atoms>  (201) 
28

>  <sp3-Atoms>  (201) 
1

$$$$
DGWXOLHKVGDQLN-KGJHZMDYNA-N
     RDKit          3D

 18 19  0  0  0  0  0  0  0  0999 V2000
   25.8515    4.2322   62.3463 O   0  0  0  0  0  0  0  0  0  0  0  0
   26.4714    5.2661   62.6451 N   0  0  0  0  0  0  0  0  0  0  0  0
   27.4242    5.1937   63.7363 C   0  0  0  0  0  0  0  0  0  0  0  0
   28.1251    6.4741   64.0584 C   0  0  0  0  0  0  0  0  0  0  0  0
   27.7795    4.1232   64.4481 C   0  0  0  0  0  0  0  0  0  0  0  0
   27.8537    7.6474   63.3517 O   0  0  0  0  0  0  0  0  0  0  0  0
   29.0636    6.5405   65.0399 N   0  0  0  0  0  0  0  0  0  0  0  0
   28.7929    4.3237   65.4938 N   0  0  0  0  0  0  0  0  0  0  0  0
   27.2555    2.9496   64.2471 N   0  0  0  0  0  0  0  0  0  0  0  0
   28.7982    8.7289   63.5774 C   0  0  0  0  0  0  0  0  0  0  0  0
   29.3995    5.3978   65.7611 C   0  0  0  0  0  0  0  0  0  0  0  0
   28.5127    9.7518   62.4755 C   0  0  0  0  0  0  0  0  0  0  0  0
   30.3223    5.5288   66.6803 N   0  0  0  0  0  0  0  0  0  0  0  0
   29.2359   11.1071   62.7122 C   0  0  0  0  0  0  0  0  0  0  0  0
   27.0044    9.9479   62.2204 C   0  0  0  0  0  0  0  0  0  0  0  0
   29.0241   12.0151   61.4560 C   0  0  0  0  0  0  0  0  0  0  0  0
   26.8112   10.9135   61.0137 C   0  0  0  0  0  0  0  0  0  0  0  0
   27.4964   12.2816   61.3525 C   0  0  0  0  0  0  0  0  0  0  0  0
  1  2  2  0
  2  3  1  0
  3  4  2  0
  3  5  1  0
  4  6  1  0
  4  7  1  0
  5  8  2  0
  5  9  1  0
  6 10  1  0
  7 11  2  0
 10 12  1  0
 11 13  1  0
 12 14  1  0
 12 15  1  0
 14 16  1  0
 15 17  1  0
 16 18  1  0
  8 11  1  0
 17 18  1  0
M  END
>  <Molecule Name>  (202) 
DGWXOLHKVGDQLN-KGJHZMDYNA-N

>  <hs_clash>  (202) 
1.0

>  <hs_total>  (202) 
67.38291934416954

>  <Total Molweight>  (202) 
251.289

>  <cLogP>  (202) 
1.2643

>  <H-Acceptors>  (202) 
7

>  <H-Donors>  (202) 
2

>  <Polar Surface Area>  (202) 
116.48

>  <Non-H Atoms>  (202) 
18

>  <sp3-Atoms>  (202) 
8

$$$$
HULMMZPBCUBDJN-QGACCKHDNA-O
     RDKit          3D

 31 33  0  0  0  0  0  0  0  0999 V2000
   33.1943   10.4759   64.9368 S   0  0  0  0  0  0  0  0  0  0  0  0
   33.8201   10.4740   66.2236 O   0  0  0  0  0  0  0  0  0  0  0  0
   33.9990   10.2983   63.7656 O   0  0  0  0  0  0  0  0  0  0  0  0
   32.4531   11.9010   64.7744 N   0  0  0  0  0  0  0  0  0  0  0  0
   31.9540    9.2271   64.9137 C   0  0  0  0  0  0  0  0  0  0  0  0
   31.3560   12.2823   65.6752 C   0  0  0  0  0  0  0  0  0  0  0  0
   31.0898    9.1495   63.8361 C   0  0  0  0  0  0  0  0  0  0  0  0
   31.8862    8.2946   65.9394 C   0  0  0  0  0  0  0  0  0  0  0  0
   31.4250   13.7730   65.9960 C   0  0  0  0  0  0  0  0  0  0  0  0
   30.1297    8.1555   63.8014 C   0  0  0  0  0  0  0  0  0  0  0  0
   30.9184    7.3064   65.8916 C   0  0  0  0  0  0  0  0  0  0  0  0
   31.3667   14.7055   64.8644 N   0  0  0  0  0  0  0  0  0  0  0  0
   30.0271    7.2049   64.8170 C   0  0  0  0  0  0  0  0  0  0  0  0
   31.9995   15.9809   65.1901 C   0  0  0  0  0  0  0  0  0  0  0  0
   29.9869   14.9250   64.4294 C   0  0  0  0  0  0  0  0  0  0  0  0
   28.9942    6.1387   64.7635 C   0  0  0  0  0  0  0  0  0  0  0  0
   28.0092    6.2955   63.8614 N   0  0  0  0  0  0  0  0  0  0  0  0
   29.1095    4.9406   65.4738 C   0  0  0  0  0  0  0  0  0  0  0  0
   27.1653    5.2726   63.6312 C   0  0  0  0  0  0  0  0  0  0  0  0
   28.2913    3.9021   65.2721 N   0  0  0  0  0  0  0  0  0  0  0  0
   27.2973    4.0349   64.3673 C   0  0  0  0  0  0  0  0  0  0  0  0
   26.1056    5.4967   62.5914 C   0  0  0  0  0  0  0  0  0  0  0  0
   26.4992    2.9893   64.1428 N   0  0  0  0  0  0  0  0  0  0  0  0
   25.2150    4.6697   62.4300 O   0  0  0  0  0  0  0  0  0  0  0  0
   26.2227    6.6512   61.9024 N   0  0  0  0  0  0  0  0  0  0  0  0
   25.3568    7.1647   60.9095 C   0  0  0  0  0  0  0  0  0  0  0  0
   24.0204    6.7990   60.7431 C   0  0  0  0  0  0  0  0  0  0  0  0
   25.8615    8.1450   60.0719 C   0  0  0  0  0  0  0  0  0  0  0  0
   23.2167    7.3324   59.8134 N   0  0  0  0  0  0  0  0  0  0  0  0
   25.0475    8.6969   59.1019 C   0  0  0  0  0  0  0  0  0  0  0  0
   23.7379    8.2753   59.0226 C   0  0  0  0  0  0  0  0  0  0  0  0
  1  2  2  0
  1  3  2  0
  1  4  1  0
  1  5  1  0
  4  6  1  0
  5  7  2  0
  5  8  1  0
  6  9  1  0
  7 10  1  0
  8 11  2  0
  9 12  1  0
 10 13  2  0
 12 14  1  0
 12 15  1  0
 13 16  1  0
 16 17  2  0
 16 18  1  0
 17 19  1  0
 18 20  2  0
 19 21  2  0
 19 22  1  0
 21 23  1  0
 22 24  2  0
 22 25  1  0
 25 26  1  0
 26 27  2  0
 26 28  1  0
 27 29  1  0
 28 30  2  0
 29 31  2  0
 11 13  1  0
 20 21  1  0
 30 31  1  0
M  CHG  1  12   1
M  END
>  <Molecule Name>  (203) 
HULMMZPBCUBDJN-QGACCKHDNA-O

>  <hs_clash>  (203) 
6.0

>  <hs_total>  (203) 
67.36157256494788

>  <Total Molweight>  (203) 
442.523

>  <cLogP>  (203) 
-1.2584

>  <H-Acceptors>  (203) 
10

>  <H-Donors>  (203) 
4

>  <Polar Surface Area>  (203) 
152.78

>  <Non-H Atoms>  (203) 
31

>  <sp3-Atoms>  (203) 
6

$$$$
MWGXGTJJAOZBNW-QZINJFTLNA-N
     RDKit          3D

 18 20  0  0  0  0  0  0  0  0999 V2000
   27.4970    7.7013   63.1395 O   0  0  0  0  0  0  0  0  0  0  0  0
   28.0880    6.7185   63.9320 C   0  0  0  0  0  0  0  0  0  0  0  0
   28.4956    8.7269   62.8601 C   0  0  0  0  0  0  0  0  0  0  0  0
   29.2078    6.8587   64.6419 N   0  0  0  0  0  0  0  0  0  0  0  0
   27.4922    5.4601   63.9504 C   0  0  0  0  0  0  0  0  0  0  0  0
   27.7802    9.5427   61.7085 C   0  0  0  0  0  0  0  0  0  0  0  0
   29.7298    5.8885   65.3820 C   0  0  0  0  0  0  0  0  0  0  0  0
   26.4427    4.8772   63.3865 N   0  0  0  0  0  0  0  0  0  0  0  0
   28.0295    4.4476   64.6821 C   0  0  0  0  0  0  0  0  0  0  0  0
   26.5886   10.2983   62.3892 C   0  0  0  0  0  0  0  0  0  0  0  0
   28.6667   10.7873   61.8293 C   0  0  0  0  0  0  0  0  0  0  0  0
   29.1218    4.6872   65.3973 N   0  0  0  0  0  0  0  0  0  0  0  0
   30.8703    5.8576   66.1166 N   0  0  0  0  0  0  0  0  0  0  0  0
   26.2241    3.5654   63.7375 C   0  0  0  0  0  0  0  0  0  0  0  0
   27.3009    3.3477   64.5273 N   0  0  0  0  0  0  0  0  0  0  0  0
   26.0476   11.2896   61.3591 C   0  0  0  0  0  0  0  0  0  0  0  0
   28.1975   11.8334   60.7756 C   0  0  0  0  0  0  0  0  0  0  0  0
   27.0143   12.4693   61.6204 C   0  0  0  0  0  0  0  0  0  0  0  0
  1  2  1  0
  1  3  1  0
  2  4  2  0
  2  5  1  0
  3  6  1  0
  4  7  1  0
  5  8  1  0
  5  9  2  0
  6 10  1  0
  6 11  1  0
  7 12  2  0
  7 13  1  0
  8 14  2  0
  9 15  1  0
 10 16  1  0
 11 17  1  0
 16 18  1  0
  9 12  1  0
 14 15  1  0
 17 18  1  0
M  END
>  <Molecule Name>  (204) 
MWGXGTJJAOZBNW-QZINJFTLNA-N

>  <hs_clash>  (204) 
2.0

>  <hs_total>  (204) 
65.35261678541723

>  <Total Molweight>  (204) 
247.301

>  <cLogP>  (204) 
1.7029

>  <H-Acceptors>  (204) 
6

>  <H-Donors>  (204) 
2

>  <Polar Surface Area>  (204) 
89.71

>  <Non-H Atoms>  (204) 
18

>  <sp3-Atoms>  (204) 
8

$$$$
RTHKPHCVZVYDFN-MNIXEANVNA-N
     RDKit          3D

 22 25  0  0  0  0  0  0  0  0999 V2000
   22.7571    6.9636   61.0224 O   0  0  0  0  0  0  0  0  0  0  0  0
   23.2376    5.8192   61.5916 C   0  0  0  0  0  0  0  0  0  0  0  0
   24.3655    5.8028   62.5696 C   0  0  0  0  0  0  0  0  0  0  0  0
   22.6752    4.5895   61.2636 C   0  0  0  0  0  0  0  0  0  0  0  0
   24.8157    4.5125   63.1315 C   0  0  0  0  0  0  0  0  0  0  0  0
   25.2895    6.7446   63.2517 C   0  0  0  0  0  0  0  0  0  0  0  0
   23.1712    3.4118   61.8390 C   0  0  0  0  0  0  0  0  0  0  0  0
   25.8379    4.6089   64.0088 N   0  0  0  0  0  0  0  0  0  0  0  0
   24.1914    3.3712   62.7327 N   0  0  0  0  0  0  0  0  0  0  0  0
   25.3922    8.2183   63.1343 C   0  0  0  0  0  0  0  0  0  0  0  0
   26.1728    5.9006   64.1289 C   0  0  0  0  0  0  0  0  0  0  0  0
   26.4866    3.6519   64.6896 C   0  0  0  0  0  0  0  0  0  0  0  0
   26.4937    8.7726   63.6805 N   0  0  0  0  0  0  0  0  0  0  0  0
   24.4433    9.0065   62.4907 C   0  0  0  0  0  0  0  0  0  0  0  0
   27.2138    6.2691   64.9822 C   0  0  0  0  0  0  0  0  0  0  0  0
   27.5022    3.9808   65.5289 N   0  0  0  0  0  0  0  0  0  0  0  0
   26.1366    2.3639   64.5543 N   0  0  0  0  0  0  0  0  0  0  0  0
   26.6941   10.0983   63.6339 C   0  0  0  0  0  0  0  0  0  0  0  0
   24.6664   10.3825   62.4508 C   0  0  0  0  0  0  0  0  0  0  0  0
   27.8751    5.2628   65.6875 C   0  0  0  0  0  0  0  0  0  0  0  0
   25.7769   10.8992   63.0197 N   0  0  0  0  0  0  0  0  0  0  0  0
   27.8258   10.5832   64.2075 N   0  0  0  0  0  0  0  0  0  0  0  0
  1  2  2  0
  2  3  1  0
  2  4  1  0
  3  5  2  0
  3  6  1  0
  4  7  2  0
  5  8  1  0
  5  9  1  0
  6 10  1  0
  6 11  2  0
  8 12  1  0
 10 13  2  0
 10 14  1  0
 11 15  1  0
 12 16  2  0
 12 17  1  0
 13 18  1  0
 14 19  2  0
 15 20  2  0
 18 21  2  0
 18 22  1  0
  7  9  1  0
  8 11  1  0
 16 20  1  0
 19 21  1  0
M  END
>  <Molecule Name>  (205) 
RTHKPHCVZVYDFN-MNIXEANVNA-N

>  <hs_clash>  (205) 
1.0

>  <hs_total>  (205) 
65.2967587276733

>  <Total Molweight>  (205) 
293.289

>  <cLogP>  (205) 
-0.1202

>  <H-Acceptors>  (205) 
8

>  <H-Donors>  (205) 
3

>  <Polar Surface Area>  (205) 
124.22

>  <Non-H Atoms>  (205) 
22

>  <sp3-Atoms>  (205) 
0

$$$$
BBZUBCUIVIEBCP-JAJSHJQTNA-P
     RDKit          3D

 32 35  0  0  0  0  0  0  0  0999 V2000
   33.2010   10.4968   65.0593 S   0  0  0  0  0  0  0  0  0  0  0  0
   34.4125   10.1007   64.1142 O   0  0  0  0  0  0  0  0  0  0  0  0
   33.7455   11.0909   66.4213 O   0  0  0  0  0  0  0  0  0  0  0  0
   32.2271   11.6782   64.2337 N   0  0  0  0  0  0  0  0  0  0  0  0
   32.2238    9.0885   65.3520 C   0  0  0  0  0  0  0  0  0  0  0  0
   31.2923   12.3611   65.1565 C   0  0  0  0  0  0  0  0  0  0  0  0
   31.2104    8.7514   64.4298 C   0  0  0  0  0  0  0  0  0  0  0  0
   32.4830    8.2965   66.5007 C   0  0  0  0  0  0  0  0  0  0  0  0
   30.9298   13.7582   64.6364 C   0  0  0  0  0  0  0  0  0  0  0  0
   30.4488    7.5928   64.6513 C   0  0  0  0  0  0  0  0  0  0  0  0
   31.7124    7.1307   66.7195 C   0  0  0  0  0  0  0  0  0  0  0  0
   32.1683   14.6910   64.4899 C   0  0  0  0  0  0  0  0  0  0  0  0
   30.6925    6.7605   65.7963 C   0  0  0  0  0  0  0  0  0  0  0  0
   31.9188   16.1673   64.3046 N   0  0  0  0  0  0  0  0  0  0  0  0
   29.9598    5.5420   66.0551 N   0  0  0  0  0  0  0  0  0  0  0  0
   31.5722   16.8971   65.5558 C   0  0  0  0  0  0  0  0  0  0  0  0
   30.9072   16.4564   63.2308 C   0  0  0  0  0  0  0  0  0  0  0  0
   28.9093    4.8159   65.3838 C   0  0  0  0  0  0  0  0  0  0  0  0
   28.1768    5.5478   64.5284 N   0  0  0  0  0  0  0  0  0  0  0  0
   28.7294    3.5117   65.6188 N   0  0  0  0  0  0  0  0  0  0  0  0
   27.1667    4.9595   63.8281 C   0  0  0  0  0  0  0  0  0  0  0  0
   27.7472    2.8726   64.9574 C   0  0  0  0  0  0  0  0  0  0  0  0
   26.3780    5.7263   62.9132 C   0  0  0  0  0  0  0  0  0  0  0  0
   26.9123    3.5535   64.0295 C   0  0  0  0  0  0  0  0  0  0  0  0
   25.1349    5.3660   62.3496 N   0  0  0  0  0  0  0  0  0  0  0  0
   26.6684    7.0692   62.4263 C   0  0  0  0  0  0  0  0  0  0  0  0
   24.3469    4.1829   62.3359 N   0  0  0  0  0  0  0  0  0  0  0  0
   24.8661    6.4694   61.5371 C   0  0  0  0  0  0  0  0  0  0  0  0
   25.6929    7.5577   61.5380 N   0  0  0  0  0  0  0  0  0  0  0  0
   23.2230    4.1284   61.6318 C   0  0  0  0  0  0  0  0  0  0  0  0
   23.5462    6.3684   60.7052 C   0  0  0  0  0  0  0  0  0  0  0  0
   22.8137    5.1936   60.8379 C   0  0  0  0  0  0  0  0  0  0  0  0
  1  2  2  0
  1  3  2  0
  1  4  1  0
  1  5  1  0
  4  6  1  0
  5  7  2  0
  5  8  1  0
  6  9  1  0
  7 10  1  0
  8 11  2  0
  9 12  1  0
 10 13  2  0
 12 14  1  0
 13 15  1  0
 14 16  1  0
 14 17  1  0
 15 18  1  0
 18 19  2  0
 18 20  1  0
 19 21  1  0
 20 22  2  0
 21 23  1  0
 21 24  2  0
 23 25  1  0
 23 26  2  0
 25 27  1  0
 25 28  1  0
 26 29  1  0
 27 30  2  0
 28 31  1  0
 30 32  1  0
 11 13  1  0
 22 24  1  0
 28 29  2  0
 31 32  2  0
M  CHG  2  14   1  29   1
M  END
>  <Molecule Name>  (206) 
BBZUBCUIVIEBCP-JAJSHJQTNA-P

>  <hs_clash>  (206) 
1.0

>  <hs_total>  (206) 
63.58358563021095

>  <Total Molweight>  (206) 
454.557

>  <cLogP>  (206) 
-2.3243

>  <H-Acceptors>  (206) 
10

>  <H-Donors>  (206) 
4

>  <Polar Surface Area>  (206) 
128.24

>  <Non-H Atoms>  (206) 
32

>  <sp3-Atoms>  (206) 
7

$$$$
GTVPOLSIJWJJNY-XQMQJMAZNA-N
     RDKit          3D

 22 24  0  0  0  0  0  0  0  0999 V2000
   29.1231   11.6858   61.4120 O   0  0  0  0  0  0  0  0  0  0  0  0
   29.0776   10.2549   61.1805 C   0  0  0  0  0  0  0  0  0  0  0  0
   28.9267    9.5985   62.5960 C   0  0  0  0  0  0  0  0  0  0  0  0
   27.7424    8.7127   62.9581 N   0  0  0  0  0  0  0  0  0  0  0  0
   27.9651    7.5216   63.7080 C   0  0  0  0  0  0  0  0  0  0  0  0
   29.1560    7.2929   64.2706 N   0  0  0  0  0  0  0  0  0  0  0  0
   27.0049    6.5609   63.7247 N   0  0  0  0  0  0  0  0  0  0  0  0
   29.4690    6.2164   64.9612 C   0  0  0  0  0  0  0  0  0  0  0  0
   27.3916    5.3559   64.2971 C   0  0  0  0  0  0  0  0  0  0  0  0
   30.6303    6.2476   65.6632 N   0  0  0  0  0  0  0  0  0  0  0  0
   28.5739    5.1300   64.9446 C   0  0  0  0  0  0  0  0  0  0  0  0
   26.6701    4.1721   64.3310 N   0  0  0  0  0  0  0  0  0  0  0  0
   31.6548    7.2508   65.2990 C   0  0  0  0  0  0  0  0  0  0  0  0
   28.6148    3.8230   65.4510 N   0  0  0  0  0  0  0  0  0  0  0  0
   27.4724    3.2746   65.0485 C   0  0  0  0  0  0  0  0  0  0  0  0
   25.3164    3.9394   63.6620 C   0  0  0  0  0  0  0  0  0  0  0  0
   31.6120    8.3991   66.1547 C   0  0  0  0  0  0  0  0  0  0  0  0
   31.3003    9.6484   65.5957 C   0  0  0  0  0  0  0  0  0  0  0  0
   31.9547    8.2618   67.4426 C   0  0  0  0  0  0  0  0  0  0  0  0
   31.3554   10.8387   66.3794 C   0  0  0  0  0  0  0  0  0  0  0  0
   32.0226    9.4037   68.2458 C   0  0  0  0  0  0  0  0  0  0  0  0
   31.7245   10.7137   67.7097 C   0  0  0  0  0  0  0  0  0  0  0  0
  1  2  1  0
  2  3  1  0
  3  4  1  0
  4  5  1  0
  5  6  2  0
  5  7  1  0
  6  8  1  0
  7  9  2  0
  8 10  1  0
  8 11  2  0
  9 12  1  0
 10 13  1  0
 11 14  1  0
 12 15  1  0
 12 16  1  0
 13 17  1  0
 17 18  2  0
 17 19  1  0
 18 20  1  0
 19 21  2  0
 20 22  2  0
  9 11  1  0
 14 15  2  0
 21 22  1  0
M  END
>  <Molecule Name>  (207) 
GTVPOLSIJWJJNY-XQMQJMAZNA-N

>  <hs_clash>  (207) 
0.0

>  <hs_total>  (207) 
63.46868496463526

>  <Total Molweight>  (207) 
298.349

>  <cLogP>  (207) 
1.0243

>  <H-Acceptors>  (207) 
7

>  <H-Donors>  (207) 
3

>  <Polar Surface Area>  (207) 
87.89

>  <Non-H Atoms>  (207) 
22

>  <sp3-Atoms>  (207) 
5

$$$$
KRKQVGZXTNLQSV-XTWAYOAANA-O
     RDKit          3D

 31 35  0  0  0  0  0  0  0  0999 V2000
   30.4887    8.9252   64.0883 S   0  0  0  0  0  0  0  0  0  0  0  0
   30.3644    7.7908   65.5007 C   0  0  0  0  0  0  0  0  0  0  0  0
   31.8298    9.8428   64.9125 C   0  0  0  0  0  0  0  0  0  0  0  0
   29.4426    6.6622   65.5025 C   0  0  0  0  0  0  0  0  0  0  0  0
   31.3500    8.1716   66.5108 C   0  0  0  0  0  0  0  0  0  0  0  0
   32.1454    9.2982   66.1845 N   0  0  0  0  0  0  0  0  0  0  0  0
   32.5424   11.0459   64.3092 C   0  0  0  0  0  0  0  0  0  0  0  0
   29.7774    5.4669   66.1753 N   0  0  0  0  0  0  0  0  0  0  0  0
   28.2256    6.3367   64.7780 C   0  0  0  0  0  0  0  0  0  0  0  0
   31.6177    7.4909   67.8201 C   0  0  0  0  0  0  0  0  0  0  0  0
   28.8272    4.3175   65.9017 N   0  0  0  0  0  0  0  0  0  0  0  0
   27.2644    6.8810   63.8284 C   0  0  0  0  0  0  0  0  0  0  0  0
   27.9069    4.9490   65.0378 C   0  0  0  0  0  0  0  0  0  0  0  0
   27.2254    7.9874   63.2869 O   0  0  0  0  0  0  0  0  0  0  0  0
   26.3666    5.7758   63.5235 C   0  0  0  0  0  0  0  0  0  0  0  0
   26.7488    4.5655   64.2581 C   0  0  0  0  0  0  0  0  0  0  0  0
   25.2418    5.6980   62.5732 C   0  0  0  0  0  0  0  0  0  0  0  0
   26.0391    3.3014   64.0397 C   0  0  0  0  0  0  0  0  0  0  0  0
   24.9701    6.9490   61.9631 N   0  0  0  0  0  0  0  0  0  0  0  0
   24.5008    4.4394   62.3287 C   0  0  0  0  0  0  0  0  0  0  0  0
   24.9215    3.2396   63.0758 C   0  0  0  0  0  0  0  0  0  0  0  0
   23.9656    7.2372   61.1341 C   0  0  0  0  0  0  0  0  0  0  0  0
   23.2904    6.3344   60.6257 O   0  0  0  0  0  0  0  0  0  0  0  0
   23.6914    8.5194   60.8697 N   0  0  0  0  0  0  0  0  0  0  0  0
   24.6402    9.4777   60.1891 N   0  0  0  0  0  0  0  0  0  0  0  0
   24.7521    9.2918   58.7240 C   0  0  0  0  0  0  0  0  0  0  0  0
   25.8330   10.1153   60.7874 C   0  0  0  0  0  0  0  0  0  0  0  0
   25.0290   10.6046   58.0092 C   0  0  0  0  0  0  0  0  0  0  0  0
   26.1982   11.4211   60.0722 C   0  0  0  0  0  0  0  0  0  0  0  0
   26.2092   11.2883   58.5886 N   0  0  0  0  0  0  0  0  0  0  0  0
   26.6405   12.4292   57.7784 C   0  0  0  0  0  0  0  0  0  0  0  0
  1  2  1  0
  1  3  1  0
  2  4  1  0
  2  5  2  0
  3  6  2  0
  3  7  1  0
  4  8  1  0
  4  9  2  0
  5 10  1  0
  8 11  1  0
  9 12  1  0
  9 13  1  0
 12 14  2  0
 12 15  1  0
 13 16  1  0
 15 17  2  0
 16 18  2  0
 17 19  1  0
 17 20  1  0
 18 21  1  0
 19 22  1  0
 22 23  2  0
 22 24  1  0
 24 25  1  0
 25 26  1  0
 25 27  1  0
 26 28  1  0
 27 29  1  0
 28 30  1  0
 30 31  1  0
  5  6  1  0
 11 13  2  0
 15 16  1  0
 20 21  2  0
 29 30  1  0
M  CHG  1  30   1
M  END
>  <Molecule Name>  (208) 
KRKQVGZXTNLQSV-XTWAYOAANA-O

>  <hs_clash>  (208) 
0.0

>  <hs_total>  (208) 
63.32067695912688

>  <Total Molweight>  (208) 
438.535

>  <cLogP>  (208) 
-1.0368

>  <H-Acceptors>  (208) 
9

>  <H-Donors>  (208) 
4

>  <Polar Surface Area>  (208) 
135.69

>  <Non-H Atoms>  (208) 
31

>  <sp3-Atoms>  (208) 
9

$$$$
MBXKBJLIESPLIK-HXTKINSTNA-N
     RDKit          3D

 31 35  0  0  0  0  0  0  0  0999 V2000
   32.2758   11.5141   64.5818 S   0  0  0  0  0  0  0  0  0  0  0  0
   33.4808   11.0120   65.1891 O   0  0  0  0  0  0  0  0  0  0  0  0
   32.3863   11.9985   63.2374 O   0  0  0  0  0  0  0  0  0  0  0  0
   31.6293   12.7612   65.4858 N   0  0  0  0  0  0  0  0  0  0  0  0
   31.1467   10.1280   64.6722 C   0  0  0  0  0  0  0  0  0  0  0  0
   31.4293   12.8615   66.8562 C   0  0  0  0  0  0  0  0  0  0  0  0
   30.3220    9.7900   63.4962 C   0  0  0  0  0  0  0  0  0  0  0  0
   30.9855    9.3477   65.9323 C   0  0  0  0  0  0  0  0  0  0  0  0
   30.2338   13.5241   67.3114 N   0  0  0  0  0  0  0  0  0  0  0  0
   32.3914   12.3083   67.8516 C   0  0  0  0  0  0  0  0  0  0  0  0
   29.3544    8.6905   63.5583 C   0  0  0  0  0  0  0  0  0  0  0  0
   29.9913    8.2656   66.0103 C   0  0  0  0  0  0  0  0  0  0  0  0
   29.9463   13.7058   68.7146 C   0  0  0  0  0  0  0  0  0  0  0  0
   32.0676   12.4729   69.2858 C   0  0  0  0  0  0  0  0  0  0  0  0
   29.1947    7.9174   64.8179 C   0  0  0  0  0  0  0  0  0  0  0  0
   30.8641   13.1991   69.7536 C   0  0  0  0  0  0  0  0  0  0  0  0
   28.4298    6.8189   64.9005 N   0  0  0  0  0  0  0  0  0  0  0  0
   26.9996    6.7232   64.6485 C   0  0  0  0  0  0  0  0  0  0  0  0
   26.3440    5.5469   64.6821 C   0  0  0  0  0  0  0  0  0  0  0  0
   26.7543    4.3048   65.3949 C   0  0  0  0  0  0  0  0  0  0  0  0
   25.1735    5.1391   63.9341 C   0  0  0  0  0  0  0  0  0  0  0  0
   27.7172    4.2310   66.1497 O   0  0  0  0  0  0  0  0  0  0  0  0
   25.9043    3.2971   65.0683 N   0  0  0  0  0  0  0  0  0  0  0  0
   24.3600    5.8496   62.9459 C   0  0  0  0  0  0  0  0  0  0  0  0
   24.9848    3.7282   64.1732 C   0  0  0  0  0  0  0  0  0  0  0  0
   24.3485    7.4638   62.5139 S   0  0  0  0  0  0  0  0  0  0  0  0
   23.3844    5.0661   62.1031 C   0  0  0  0  0  0  0  0  0  0  0  0
   23.9891    2.9624   63.4037 C   0  0  0  0  0  0  0  0  0  0  0  0
   23.2630    7.2235   61.2356 C   0  0  0  0  0  0  0  0  0  0  0  0
   22.8318    5.9381   61.1438 N   0  0  0  0  0  0  0  0  0  0  0  0
   23.1900    3.6377   62.3542 C   0  0  0  0  0  0  0  0  0  0  0  0
  1  2  2  0
  1  3  2  0
  1  4  1  0
  1  5  1  0
  4  6  1  0
  5  7  2  0
  5  8  1  0
  6  9  2  0
  6 10  1  0
  7 11  1  0
  8 12  2  0
  9 13  1  0
 10 14  2  0
 11 15  2  0
 13 16  2  0
 15 17  1  0
 17 18  1  0
 18 19  1  0
 19 20  1  0
 19 21  2  0
 20 22  2  0
 20 23  1  0
 21 24  1  0
 21 25  1  0
 24 26  1  0
 24 27  2  0
 25 28  1  0
 26 29  1  0
 27 30  1  0
 27 31  1  0
 12 15  1  0
 14 16  1  0
 23 25  2  0
 28 31  2  0
 29 30  2  0
M  END
>  <Molecule Name>  (209) 
MBXKBJLIESPLIK-HXTKINSTNA-N

>  <hs_clash>  (209) 
9.0

>  <hs_total>  (209) 
62.92515105786182

>  <Total Molweight>  (209) 
449.514

>  <cLogP>  (209) 
0.8559

>  <H-Acceptors>  (209) 
8

>  <H-Donors>  (209) 
2

>  <Polar Surface Area>  (209) 
150.03

>  <Non-H Atoms>  (209) 
31

>  <sp3-Atoms>  (209) 
2

$$$$
FPKSFXFWECAIBR-SMPXVDCQNA-N
     RDKit          3D

 23 26  0  0  0  0  0  0  0  0999 V2000
   24.9803    5.2413   62.1878 O   0  0  0  0  0  0  0  0  0  0  0  0
   25.8599    6.0929   62.2045 C   0  0  0  0  0  0  0  0  0  0  0  0
   26.9709    5.9646   63.0000 N   0  0  0  0  0  0  0  0  0  0  0  0
   25.7353    7.3069   61.3401 C   0  0  0  0  0  0  0  0  0  0  0  0
   27.2681    4.8857   63.8929 C   0  0  0  0  0  0  0  0  0  0  0  0
   24.8362    7.3225   60.2323 C   0  0  0  0  0  0  0  0  0  0  0  0
   26.5150    8.4714   61.6178 C   0  0  0  0  0  0  0  0  0  0  0  0
   28.3680    4.8767   64.7858 C   0  0  0  0  0  0  0  0  0  0  0  0
   26.6056    3.7009   64.0530 C   0  0  0  0  0  0  0  0  0  0  0  0
   24.7253    8.4721   59.4233 C   0  0  0  0  0  0  0  0  0  0  0  0
   26.3951    9.6156   60.8000 C   0  0  0  0  0  0  0  0  0  0  0  0
   28.3491    3.7368   65.4499 N   0  0  0  0  0  0  0  0  0  0  0  0
   29.3554    5.9696   64.9428 C   0  0  0  0  0  0  0  0  0  0  0  0
   27.2539    2.9852   65.0058 N   0  0  0  0  0  0  0  0  0  0  0  0
   25.5012    9.6156   59.7065 C   0  0  0  0  0  0  0  0  0  0  0  0
   30.4388    5.9464   65.7834 N   0  0  0  0  0  0  0  0  0  0  0  0
   29.3211    7.1067   64.2836 N   0  0  0  0  0  0  0  0  0  0  0  0
   31.1130    7.1402   65.6141 C   0  0  0  0  0  0  0  0  0  0  0  0
   30.3514    7.8909   64.6646 C   0  0  0  0  0  0  0  0  0  0  0  0
   32.2629    7.7225   66.2067 C   0  0  0  0  0  0  0  0  0  0  0  0
   30.8043    9.1860   64.2641 C   0  0  0  0  0  0  0  0  0  0  0  0
   32.6847    9.0025   65.8038 C   0  0  0  0  0  0  0  0  0  0  0  0
   31.9431    9.7350   64.8505 C   0  0  0  0  0  0  0  0  0  0  0  0
  1  2  2  0
  2  3  1  0
  2  4  1  0
  3  5  1  0
  4  6  2  0
  4  7  1  0
  5  8  1  0
  5  9  2  0
  6 10  1  0
  7 11  2  0
  8 12  2  0
  8 13  1  0
  9 14  1  0
 10 15  2  0
 13 16  2  0
 13 17  1  0
 16 18  1  0
 17 19  1  0
 18 20  2  0
 19 21  2  0
 20 22  1  0
 21 23  1  0
 11 15  1  0
 12 14  1  0
 18 19  1  0
 22 23  2  0
M  END
>  <Molecule Name>  (210) 
FPKSFXFWECAIBR-SMPXVDCQNA-N

>  <hs_clash>  (210) 
0.0

>  <hs_total>  (210) 
61.45730117604674

>  <Total Molweight>  (210) 
303.324

>  <cLogP>  (210) 
2.0343

>  <H-Acceptors>  (210) 
6

>  <H-Donors>  (210) 
3

>  <Polar Surface Area>  (210) 
86.46

>  <Non-H Atoms>  (210) 
23

>  <sp3-Atoms>  (210) 
0

$$$$
BDRDBXXWQDFXEC-CMJFTGLXNA-N
     RDKit          3D

 26 28  0  0  0  0  0  0  0  0999 V2000
   22.8410    6.7100   62.4624 F   0  0  0  0  0  0  0  0  0  0  0  0
   23.7032    7.2706   61.5916 C   0  0  0  0  0  0  0  0  0  0  0  0
   24.9688    6.6850   61.4391 C   0  0  0  0  0  0  0  0  0  0  0  0
   23.3239    8.4072   60.8685 C   0  0  0  0  0  0  0  0  0  0  0  0
   25.8529    7.3061   60.5331 C   0  0  0  0  0  0  0  0  0  0  0  0
   25.3838    5.4865   62.2586 C   0  0  0  0  0  0  0  0  0  0  0  0
   24.2214    8.9891   59.9746 C   0  0  0  0  0  0  0  0  0  0  0  0
   27.0820    6.7919   60.3763 F   0  0  0  0  0  0  0  0  0  0  0  0
   25.4874    8.4336   59.8000 C   0  0  0  0  0  0  0  0  0  0  0  0
   24.8290    4.3828   62.1421 O   0  0  0  0  0  0  0  0  0  0  0  0
   26.3521    5.7020   63.1622 N   0  0  0  0  0  0  0  0  0  0  0  0
   26.8826    4.7526   64.0172 C   0  0  0  0  0  0  0  0  0  0  0  0
   27.9623    4.9917   64.8724 C   0  0  0  0  0  0  0  0  0  0  0  0
   26.5377    3.4521   64.2112 C   0  0  0  0  0  0  0  0  0  0  0  0
   28.2616    3.9046   65.5358 N   0  0  0  0  0  0  0  0  0  0  0  0
   28.6964    6.2609   65.0100 C   0  0  0  0  0  0  0  0  0  0  0  0
   27.3730    2.9728   65.1084 N   0  0  0  0  0  0  0  0  0  0  0  0
   28.1950    7.3096   64.6285 O   0  0  0  0  0  0  0  0  0  0  0  0
   29.9550    6.1955   65.4990 N   0  0  0  0  0  0  0  0  0  0  0  0
   30.8315    7.3132   65.5917 C   0  0  0  0  0  0  0  0  0  0  0  0
   31.2941    7.7453   66.8437 C   0  0  0  0  0  0  0  0  0  0  0  0
   31.2145    8.0102   64.4347 C   0  0  0  0  0  0  0  0  0  0  0  0
   32.1244    8.8405   66.9376 C   0  0  0  0  0  0  0  0  0  0  0  0
   32.0569    9.1022   64.5316 C   0  0  0  0  0  0  0  0  0  0  0  0
   32.4999    9.5006   65.7818 C   0  0  0  0  0  0  0  0  0  0  0  0
   33.3190   10.5628   65.8789 F   0  0  0  0  0  0  0  0  0  0  0  0
  1  2  1  0
  2  3  2  0
  2  4  1  0
  3  5  1  0
  3  6  1  0
  4  7  2  0
  5  8  1  0
  5  9  2  0
  6 10  2  0
  6 11  1  0
 11 12  1  0
 12 13  1  0
 12 14  2  0
 13 15  2  0
 13 16  1  0
 14 17  1  0
 16 18  2  0
 16 19  1  0
 19 20  1  0
 20 21  2  0
 20 22  1  0
 21 23  1  0
 22 24  2  0
 23 25  2  0
 25 26  1  0
  7  9  1  0
 15 17  1  0
 24 25  1  0
M  END
>  <Molecule Name>  (211) 
BDRDBXXWQDFXEC-CMJFTGLXNA-N

>  <hs_clash>  (211) 
0.0

>  <hs_total>  (211) 
60.33141825779772

>  <Total Molweight>  (211) 
360.294

>  <cLogP>  (211) 
2.2046

>  <H-Acceptors>  (211) 
6

>  <H-Donors>  (211) 
3

>  <Polar Surface Area>  (211) 
86.88

>  <Non-H Atoms>  (211) 
26

>  <sp3-Atoms>  (211) 
0

$$$$
XQKJVNGGVLHNLA-HXTKINSTNA-N
     RDKit          3D

 26 28  0  0  0  0  0  0  0  0999 V2000
   24.2542    4.5289   62.2374 F   0  0  0  0  0  0  0  0  0  0  0  0
   24.5368    4.7326   63.4998 C   0  0  0  0  0  0  0  0  0  0  0  0
   25.0099    3.6325   64.0721 F   0  0  0  0  0  0  0  0  0  0  0  0
   23.5099    5.1825   64.1330 F   0  0  0  0  0  0  0  0  0  0  0  0
   25.5544    5.8224   63.5726 C   0  0  0  0  0  0  0  0  0  0  0  0
   25.4579    6.8992   62.7303 N   0  0  0  0  0  0  0  0  0  0  0  0
   26.5869    5.6599   64.4432 N   0  0  0  0  0  0  0  0  0  0  0  0
   26.4549    7.8508   62.7479 C   0  0  0  0  0  0  0  0  0  0  0  0
   27.6398    6.5511   64.5541 C   0  0  0  0  0  0  0  0  0  0  0  0
   26.1593    8.8258   61.7346 N   0  0  0  0  0  0  0  0  0  0  0  0
   27.6219    7.7676   63.6462 C   0  0  0  0  0  0  0  0  0  0  0  0
   28.7244    6.3166   65.5099 C   0  0  0  0  0  0  0  0  0  0  0  0
   25.2670    9.0645   60.5691 C   0  0  0  0  0  0  0  0  0  0  0  0
   28.7495    8.7010   63.7926 C   0  0  0  0  0  0  0  0  0  0  0  0
   29.8149    7.2575   65.6057 C   0  0  0  0  0  0  0  0  0  0  0  0
   25.4209    7.8648   59.5793 C   0  0  0  0  0  0  0  0  0  0  0  0
   23.7964    9.0900   61.0390 C   0  0  0  0  0  0  0  0  0  0  0  0
   25.6501   10.4239   59.9378 C   0  0  0  0  0  0  0  0  0  0  0  0
   29.8709    8.4847   64.7740 C   0  0  0  0  0  0  0  0  0  0  0  0
   30.9993    9.4681   65.0268 C   0  0  0  0  0  0  0  0  0  0  0  0
   31.6377   10.1967   63.9407 C   0  0  0  0  0  0  0  0  0  0  0  0
   31.5634    9.7333   66.3753 C   0  0  0  0  0  0  0  0  0  0  0  0
   32.7607   11.0759   64.2285 C   0  0  0  0  0  0  0  0  0  0  0  0
   32.7041   10.5902   66.6703 C   0  0  0  0  0  0  0  0  0  0  0  0
   33.2756   11.7806   63.1522 N   0  0  0  0  0  0  0  0  0  0  0  0
   33.3334   11.2750   65.5585 C   0  0  0  0  0  0  0  0  0  0  0  0
  1  2  1  0
  2  3  1  0
  2  4  1  0
  2  5  1  0
  5  6  2  0
  5  7  1  0
  6  8  1  0
  7  9  2  0
  8 10  1  0
  8 11  2  0
  9 12  1  0
 10 13  1  0
 11 14  1  0
 12 15  2  0
 13 16  1  0
 13 17  1  0
 13 18  1  0
 14 19  2  0
 19 20  1  0
 20 21  2  0
 20 22  1  0
 21 23  1  0
 22 24  2  0
 23 25  1  0
 23 26  2  0
  9 11  1  0
 15 19  1  0
 24 26  1  0
M  END
>  <Molecule Name>  (212) 
XQKJVNGGVLHNLA-HXTKINSTNA-N

>  <hs_clash>  (212) 
10.0

>  <hs_total>  (212) 
57.36762573661409

>  <Total Molweight>  (212) 
360.382

>  <cLogP>  (212) 
4.2776

>  <H-Acceptors>  (212) 
4

>  <H-Donors>  (212) 
2

>  <Polar Surface Area>  (212) 
63.83

>  <Non-H Atoms>  (212) 
26

>  <sp3-Atoms>  (212) 
5

$$$$
OTMLAWRVLMYMDF-YSFRZULJNA-N
     RDKit          3D

 22 24  0  0  0  0  0  0  0  0999 V2000
   27.2950    7.7595   62.2340 S   0  0  0  0  0  0  0  0  0  0  0  0
   25.8928    8.0423   61.2241 C   0  0  0  0  0  0  0  0  0  0  0  0
   26.6587    6.1087   62.5661 C   0  0  0  0  0  0  0  0  0  0  0  0
   25.1197    7.0012   61.2019 N   0  0  0  0  0  0  0  0  0  0  0  0
   25.5796    9.1357   60.5410 N   0  0  0  0  0  0  0  0  0  0  0  0
   27.4979    5.2897   63.4814 C   0  0  0  0  0  0  0  0  0  0  0  0
   25.4768    5.9110   61.9140 C   0  0  0  0  0  0  0  0  0  0  0  0
   26.3526   10.3783   60.4744 C   0  0  0  0  0  0  0  0  0  0  0  0
   28.6110    5.8797   63.9767 N   0  0  0  0  0  0  0  0  0  0  0  0
   27.1535    3.9744   63.8229 C   0  0  0  0  0  0  0  0  0  0  0  0
   24.5247    4.7535   61.8450 C   0  0  0  0  0  0  0  0  0  0  0  0
   29.4364    5.2113   64.8359 C   0  0  0  0  0  0  0  0  0  0  0  0
   28.0480    3.3564   64.6991 C   0  0  0  0  0  0  0  0  0  0  0  0
   29.1844    3.9209   65.2272 N   0  0  0  0  0  0  0  0  0  0  0  0
   30.5323    5.8000   65.3322 N   0  0  0  0  0  0  0  0  0  0  0  0
   31.0416    7.0795   65.1068 C   0  0  0  0  0  0  0  0  0  0  0  0
   30.4273    7.9980   64.2362 C   0  0  0  0  0  0  0  0  0  0  0  0
   32.2292    7.5430   65.7460 C   0  0  0  0  0  0  0  0  0  0  0  0
   30.8985    9.2640   63.9850 C   0  0  0  0  0  0  0  0  0  0  0  0
   32.7288    8.8454   65.5037 C   0  0  0  0  0  0  0  0  0  0  0  0
   32.0555    9.7099   64.6142 C   0  0  0  0  0  0  0  0  0  0  0  0
   32.4763   11.0028   64.3140 O   0  0  0  0  0  0  0  0  0  0  0  0
  1  2  1  0
  1  3  1  0
  2  4  2  0
  2  5  1  0
  3  6  1  0
  3  7  2  0
  5  8  1  0
  6  9  2  0
  6 10  1  0
  7 11  1  0
  9 12  1  0
 10 13  2  0
 12 14  2  0
 12 15  1  0
 15 16  1  0
 16 17  2  0
 16 18  1  0
 17 19  1  0
 18 20  2  0
 19 21  2  0
 21 22  1  0
  4  7  1  0
 13 14  1  0
 20 21  1  0
M  END
>  <Molecule Name>  (213) 
OTMLAWRVLMYMDF-YSFRZULJNA-N

>  <hs_clash>  (213) 
0.0

>  <hs_total>  (213) 
56.78473507579704

>  <Total Molweight>  (213) 
313.384

>  <cLogP>  (213) 
3.3101

>  <H-Acceptors>  (213) 
6

>  <H-Donors>  (213) 
3

>  <Polar Surface Area>  (213) 
111.2

>  <Non-H Atoms>  (213) 
22

>  <sp3-Atoms>  (213) 
3

$$$$
WDGFFVCWBZVLCE-JFMOSPSRNA-L
     RDKit          3D

 16 17  0  0  0  0  0  0  0  0999 V2000
   24.3857    3.5704   62.3017 O   0  0  0  0  0  0  0  0  0  0  0  0
   24.6717    4.7967   62.1706 C   0  0  0  0  0  0  0  0  0  0  0  0
   23.8147    5.4471   61.2435 C   0  0  0  0  0  0  0  0  0  0  0  0
   25.7634    5.3178   62.9341 C   0  0  0  0  0  0  0  0  0  0  0  0
   22.8278    4.7299   60.6250 O   0  0  0  0  0  0  0  0  0  0  0  0
   23.8141    6.7818   60.8314 C   0  0  0  0  0  0  0  0  0  0  0  0
   26.4669    4.4193   63.8152 C   0  0  0  0  0  0  0  0  0  0  0  0
   26.2291    6.6805   62.9028 C   0  0  0  0  0  0  0  0  0  0  0  0
   24.6588    7.8101   61.2206 C   0  0  0  0  0  0  0  0  0  0  0  0
   26.1788    3.1089   63.9759 O   0  0  0  0  0  0  0  0  0  0  0  0
   27.5449    4.8076   64.6104 C   0  0  0  0  0  0  0  0  0  0  0  0
   25.7119    7.7588   62.1370 C   0  0  0  0  0  0  0  0  0  0  0  0
   27.3310    7.0523   63.7335 C   0  0  0  0  0  0  0  0  0  0  0  0
   28.1319    3.8709   65.4013 O   0  0  0  0  0  0  0  0  0  0  0  0
   27.9819    6.1416   64.5752 C   0  0  0  0  0  0  0  0  0  0  0  0
   29.0235    6.5634   65.3249 O   0  0  0  0  0  0  0  0  0  0  0  0
  1  2  2  0
  2  3  1  0
  2  4  1  0
  3  5  1  0
  3  6  2  0
  4  7  2  0
  4  8  1  0
  6  9  1  0
  7 10  1  0
  7 11  1  0
  8 12  1  0
  8 13  2  0
 11 14  1  0
 11 15  2  0
 15 16  1  0
  9 12  2  0
 13 15  1  0
M  CHG  2   5  -1  10  -1
M  END
>  <Molecule Name>  (214) 
WDGFFVCWBZVLCE-JFMOSPSRNA-L

>  <hs_clash>  (214) 
1.0

>  <hs_total>  (214) 
54.603299726420786

>  <Total Molweight>  (214) 
218.164

>  <cLogP>  (214) 
-3.0225

>  <H-Acceptors>  (214) 
5

>  <H-Donors>  (214) 
2

>  <Polar Surface Area>  (214) 
103.65

>  <Non-H Atoms>  (214) 
16

>  <sp3-Atoms>  (214) 
4

$$$$
VNAJSBPSKADKDA-LRNNEFBYNA-N
     RDKit          3D

 28 31  0  0  0  0  0  0  0  0999 V2000
   33.7412   10.9511   64.9010 S   0  0  0  0  0  0  0  0  0  0  0  0
   34.3623   11.0231   66.1896 O   0  0  0  0  0  0  0  0  0  0  0  0
   34.5363   10.4898   63.8104 O   0  0  0  0  0  0  0  0  0  0  0  0
   32.9632   12.3703   64.4790 N   0  0  0  0  0  0  0  0  0  0  0  0
   32.4742    9.8641   65.0046 C   0  0  0  0  0  0  0  0  0  0  0  0
   32.0233   13.1074   65.2884 C   0  0  0  0  0  0  0  0  0  0  0  0
   32.3584    9.0037   66.1314 C   0  0  0  0  0  0  0  0  0  0  0  0
   31.5810    9.7074   63.9599 C   0  0  0  0  0  0  0  0  0  0  0  0
   31.5302   14.1314   64.8140 O   0  0  0  0  0  0  0  0  0  0  0  0
   31.7010   12.6063   66.6745 C   0  0  0  0  0  0  0  0  0  0  0  0
   31.3791    8.0192   66.1590 C   0  0  0  0  0  0  0  0  0  0  0  0
   30.6065    8.7289   63.9646 C   0  0  0  0  0  0  0  0  0  0  0  0
   30.4767    7.8815   65.0954 C   0  0  0  0  0  0  0  0  0  0  0  0
   29.5092    6.8578   65.0813 N   0  0  0  0  0  0  0  0  0  0  0  0
   28.4568    6.7481   64.2141 C   0  0  0  0  0  0  0  0  0  0  0  0
   27.6205    5.7295   64.2173 C   0  0  0  0  0  0  0  0  0  0  0  0
   27.7580    4.5266   65.0374 C   0  0  0  0  0  0  0  0  0  0  0  0
   26.4401    5.5339   63.3882 C   0  0  0  0  0  0  0  0  0  0  0  0
   28.6321    4.3695   65.8852 O   0  0  0  0  0  0  0  0  0  0  0  0
   26.7540    3.6522   64.6869 N   0  0  0  0  0  0  0  0  0  0  0  0
   25.7556    6.2456   62.4374 C   0  0  0  0  0  0  0  0  0  0  0  0
   25.9363    4.2349   63.6941 C   0  0  0  0  0  0  0  0  0  0  0  0
   26.1109    7.8066   61.7924 S   0  0  0  0  0  0  0  0  0  0  0  0
   24.6075    5.6793   61.8439 C   0  0  0  0  0  0  0  0  0  0  0  0
   24.8610    3.6624   63.0753 C   0  0  0  0  0  0  0  0  0  0  0  0
   24.6857    7.6122   60.7905 C   0  0  0  0  0  0  0  0  0  0  0  0
   23.9928    6.5250   60.8921 N   0  0  0  0  0  0  0  0  0  0  0  0
   24.1434    4.4199   62.1225 C   0  0  0  0  0  0  0  0  0  0  0  0
  1  2  2  0
  1  3  2  0
  1  4  1  0
  1  5  1  0
  4  6  1  0
  5  7  2  0
  5  8  1  0
  6  9  2  0
  6 10  1  0
  7 11  1  0
  8 12  2  0
 11 13  2  0
 13 14  1  0
 14 15  2  0
 15 16  1  0
 16 17  2  0
 16 18  1  0
 17 19  1  0
 17 20  1  0
 18 21  2  0
 18 22  1  0
 21 23  1  0
 21 24  1  0
 22 25  2  0
 23 26  1  0
 24 27  1  0
 24 28  2  0
 12 13  1  0
 20 22  1  0
 25 28  1  0
 26 27  2  0
M  END
>  <Molecule Name>  (215) 
VNAJSBPSKADKDA-LRNNEFBYNA-N

>  <hs_clash>  (215) 
1.0

>  <hs_total>  (215) 
53.43162390854445

>  <Total Molweight>  (215) 
414.465

>  <cLogP>  (215) 
2.215

>  <H-Acceptors>  (215) 
8

>  <H-Donors>  (215) 
3

>  <Polar Surface Area>  (215) 
161.13

>  <Non-H Atoms>  (215) 
28

>  <sp3-Atoms>  (215) 
3

$$$$
KPLUVIWNJYXFQT-WOJGMQOQNA-N
     RDKit          3D

 20 22  0  0  0  0  0  0  0  0999 V2000
   28.8769    4.1795   65.6500 O   0  0  0  0  0  0  0  0  0  0  0  0
   27.9167    4.2897   64.6625 C   0  0  0  0  0  0  0  0  0  0  0  0
   27.8445    5.4647   63.8868 C   0  0  0  0  0  0  0  0  0  0  0  0
   27.0405    3.2268   64.4380 C   0  0  0  0  0  0  0  0  0  0  0  0
   26.8337    5.5835   62.8414 C   0  0  0  0  0  0  0  0  0  0  0  0
   28.8370    6.6408   64.1541 C   0  0  0  0  0  0  0  0  0  0  0  0
   26.0507    3.3339   63.4228 C   0  0  0  0  0  0  0  0  0  0  0  0
   25.9617    4.5304   62.6206 C   0  0  0  0  0  0  0  0  0  0  0  0
   26.7395    6.7624   62.0416 C   0  0  0  0  0  0  0  0  0  0  0  0
   29.8730    6.4587   65.1639 N   0  0  0  0  0  0  0  0  0  0  0  0
   24.9550    4.6415   61.5785 C   0  0  0  0  0  0  0  0  0  0  0  0
   25.7546    6.8664   61.0206 C   0  0  0  0  0  0  0  0  0  0  0  0
   30.8925    7.4723   65.4318 C   0  0  0  0  0  0  0  0  0  0  0  0
   24.8632    5.7939   60.8042 C   0  0  0  0  0  0  0  0  0  0  0  0
   31.3902    7.6466   66.7354 C   0  0  0  0  0  0  0  0  0  0  0  0
   31.3663    8.2670   64.4114 C   0  0  0  0  0  0  0  0  0  0  0  0
   32.3741    8.6297   66.9994 C   0  0  0  0  0  0  0  0  0  0  0  0
   32.3573    9.2521   64.6792 C   0  0  0  0  0  0  0  0  0  0  0  0
   32.8558    9.4201   65.9780 C   0  0  0  0  0  0  0  0  0  0  0  0
   33.8061   10.3719   66.2418 O   0  0  0  0  0  0  0  0  0  0  0  0
  1  2  1  0
  2  3  2  0
  2  4  1  0
  3  5  1  0
  3  6  1  0
  4  7  2  0
  5  8  2  0
  5  9  1  0
  6 10  2  0
  8 11  1  0
  9 12  2  0
 10 13  1  0
 11 14  2  0
 13 15  2  0
 13 16  1  0
 15 17  1  0
 16 18  2  0
 17 19  2  0
 19 20  1  0
  7  8  1  0
 12 14  1  0
 18 19  1  0
M  END
>  <Molecule Name>  (216) 
KPLUVIWNJYXFQT-WOJGMQOQNA-N

>  <hs_clash>  (216) 
0.0

>  <hs_total>  (216) 
53.35874147754719

>  <Total Molweight>  (216) 
263.295

>  <cLogP>  (216) 
3.5364

>  <H-Acceptors>  (216) 
3

>  <H-Donors>  (216) 
2

>  <Polar Surface Area>  (216) 
52.82

>  <Non-H Atoms>  (216) 
20

>  <sp3-Atoms>  (216) 
2

$$$$
LPSCCOBGZSKECZ-YNRCZZKYNA-O
     RDKit          3D

 32 37  0  0  0  0  0  0  0  0999 V2000
   28.2271    4.0236   65.4913 N   0  0  0  0  0  0  0  0  0  0  0  0
   27.2172    3.3028   64.9817 N   0  0  0  0  0  0  0  0  0  0  0  0
   28.0987    5.2159   64.8942 C   0  0  0  0  0  0  0  0  0  0  0  0
   26.4497    3.9827   64.0831 C   0  0  0  0  0  0  0  0  0  0  0  0
   29.0543    6.3176   65.1376 C   0  0  0  0  0  0  0  0  0  0  0  0
   27.0004    5.2444   64.0001 C   0  0  0  0  0  0  0  0  0  0  0  0
   25.3684    3.5591   63.3540 C   0  0  0  0  0  0  0  0  0  0  0  0
   30.0707    6.2339   65.9597 N   0  0  0  0  0  0  0  0  0  0  0  0
   29.0228    7.5430   64.5372 N   0  0  0  0  0  0  0  0  0  0  0  0
   26.4350    6.1827   63.1562 C   0  0  0  0  0  0  0  0  0  0  0  0
   24.8150    4.5029   62.5198 C   0  0  0  0  0  0  0  0  0  0  0  0
   30.7079    7.4433   65.8938 C   0  0  0  0  0  0  0  0  0  0  0  0
   30.0677    8.2788   65.0073 C   0  0  0  0  0  0  0  0  0  0  0  0
   25.3366    5.7703   62.4378 C   0  0  0  0  0  0  0  0  0  0  0  0
   23.7321    4.1160   61.6591 C   0  0  0  0  0  0  0  0  0  0  0  0
   31.8335    7.8726   66.5717 C   0  0  0  0  0  0  0  0  0  0  0  0
   30.4682    9.5623   64.7262 C   0  0  0  0  0  0  0  0  0  0  0  0
   22.7151    4.9640   61.2887 C   0  0  0  0  0  0  0  0  0  0  0  0
   23.7562    2.8440   61.1384 C   0  0  0  0  0  0  0  0  0  0  0  0
   32.2451    9.1553   66.3006 C   0  0  0  0  0  0  0  0  0  0  0  0
   29.7928   10.3884   63.8253 N   0  0  0  0  0  0  0  0  0  0  0  0
   31.5872    9.9697   65.4105 C   0  0  0  0  0  0  0  0  0  0  0  0
   21.7414    4.5364   60.4146 C   0  0  0  0  0  0  0  0  0  0  0  0
   22.7819    2.4085   60.2735 C   0  0  0  0  0  0  0  0  0  0  0  0
   29.5653    9.6390   62.6153 C   0  0  0  0  0  0  0  0  0  0  0  0
   30.5438   11.6033   63.6063 C   0  0  0  0  0  0  0  0  0  0  0  0
   21.7657    3.2594   59.9001 C   0  0  0  0  0  0  0  0  0  0  0  0
   28.6512   10.4787   61.7573 C   0  0  0  0  0  0  0  0  0  0  0  0
   29.7304   12.5136   62.7161 C   0  0  0  0  0  0  0  0  0  0  0  0
   20.7770    2.8172   59.0013 N   0  0  0  0  0  0  0  0  0  0  0  0
   29.3487   11.7653   61.4905 N   0  0  0  0  0  0  0  0  0  0  0  0
   28.5628   12.6133   60.5660 C   0  0  0  0  0  0  0  0  0  0  0  0
  1  2  1  0
  1  3  2  0
  2  4  1  0
  3  5  1  0
  3  6  1  0
  4  7  2  0
  5  8  2  0
  5  9  1  0
  6 10  2  0
  7 11  1  0
  8 12  1  0
  9 13  1  0
 10 14  1  0
 11 15  1  0
 12 16  2  0
 13 17  2  0
 15 18  2  0
 15 19  1  0
 16 20  1  0
 17 21  1  0
 17 22  1  0
 18 23  1  0
 19 24  2  0
 21 25  1  0
 21 26  1  0
 23 27  2  0
 25 28  1  0
 26 29  1  0
 27 30  1  0
 28 31  1  0
 31 32  1  0
  4  6  1  0
 11 14  2  0
 12 13  1  0
 20 22  2  0
 24 27  1  0
 29 31  1  0
M  CHG  1  31   1
M  END
>  <Molecule Name>  (217) 
LPSCCOBGZSKECZ-YNRCZZKYNA-O

>  <hs_clash>  (217) 
2.0

>  <hs_total>  (217) 
52.7335542347826

>  <Total Molweight>  (217) 
424.530

>  <cLogP>  (217) 
0.8543

>  <H-Acceptors>  (217) 
7

>  <H-Donors>  (217) 
4

>  <Polar Surface Area>  (217) 
91.06

>  <Non-H Atoms>  (217) 
32

>  <sp3-Atoms>  (217) 
7

$$$$
QNUKRWAIZMBVCU-MEEIMAAPNA-N
     RDKit          3D

 18 20  0  0  0  0  0  0  0  0999 V2000
   29.1331    3.9387   65.9200 O   0  0  0  0  0  0  0  0  0  0  0  0
   28.5705    4.0117   65.4868 C   0  0  0  0  0  0  0  0  0  0  0  0
   28.0143    3.4414   65.4384 N   0  0  0  0  0  0  0  0  0  0  0  0
   28.3768    4.6350   64.9820 C   0  0  0  0  0  0  0  0  0  0  0  0
   27.4495    3.6701   64.9098 C   0  0  0  0  0  0  0  0  0  0  0  0
   27.6477    4.4051   64.6151 C   0  0  0  0  0  0  0  0  0  0  0  0
   28.7654    5.3119   64.8451 C   0  0  0  0  0  0  0  0  0  0  0  0
   26.7644    3.2817   64.6580 C   0  0  0  0  0  0  0  0  0  0  0  0
   27.1670    4.7791   64.0622 C   0  0  0  0  0  0  0  0  0  0  0  0
   29.4942    5.5927   65.1694 C   0  0  0  0  0  0  0  0  0  0  0  0
   26.2870    3.6673   64.1009 C   0  0  0  0  0  0  0  0  0  0  0  0
   26.4700    4.4200   63.7903 C   0  0  0  0  0  0  0  0  0  0  0  0
   29.9708    5.2504   65.6908 N   0  0  0  0  0  0  0  0  0  0  0  0
   29.7990    6.2975   64.9594 C   0  0  0  0  0  0  0  0  0  0  0  0
   25.9619    4.7357   63.2605 O   0  0  0  0  0  0  0  0  0  0  0  0
   30.5559    5.7269   65.8010 C   0  0  0  0  0  0  0  0  0  0  0  0
   31.2368    5.8039   66.2113 N   0  0  0  0  0  0  0  0  0  0  0  0
   28.5092   -0.1726   67.9386 C   0  0  0  0  0  0  0  0  0  0  0  0
  1  2  2  0
  2  3  1  0
  2  4  1  0
  3  5  1  0
  4  6  1  0
  4  7  2  0
  5  8  2  0
  6  9  2  0
  7 10  1  0
  8 11  1  0
  9 12  1  0
 10 13  1  0
 10 14  2  0
 12 15  1  0
 13 16  1  0
 14 17  1  0
 15 18  1  0
  5  6  1  0
 11 12  2  0
 16 17  2  0
M  END
>  <Molecule Name>  (218) 
QNUKRWAIZMBVCU-MEEIMAAPNA-N

>  <hs_clash>  (218) 
21.0

>  <hs_total>  (218) 
52.12966763823952

>  <Total Molweight>  (218) 
241.249

>  <cLogP>  (218) 
0.4099

>  <H-Acceptors>  (218) 
5

>  <H-Donors>  (218) 
2

>  <Polar Surface Area>  (218) 
67.01

>  <Non-H Atoms>  (218) 
18

>  <sp3-Atoms>  (218) 
2

$$$$
BAZFHAGOCKJYHX-JNMKGCMKNA-M
     RDKit          3D

 24 26  0  0  0  0  0  0  0  0999 V2000
   26.7042    6.8270   60.0882 Cl  0  0  0  0  0  0  0  0  0  0  0  0
   25.3997    6.1076   60.9515 C   0  0  0  0  0  0  0  0  0  0  0  0
   25.5327    5.8686   62.3179 C   0  0  0  0  0  0  0  0  0  0  0  0
   24.2334    5.7775   60.2715 C   0  0  0  0  0  0  0  0  0  0  0  0
   26.7476    6.2420   62.9992 N   0  0  0  0  0  0  0  0  0  0  0  0
   24.4702    5.3012   63.0185 C   0  0  0  0  0  0  0  0  0  0  0  0
   23.1865    5.2008   60.9700 C   0  0  0  0  0  0  0  0  0  0  0  0
   27.4965    5.3142   63.7897 C   0  0  0  0  0  0  0  0  0  0  0  0
   23.3138    4.9618   62.3355 C   0  0  0  0  0  0  0  0  0  0  0  0
   28.5802    5.7148   64.4916 N   0  0  0  0  0  0  0  0  0  0  0  0
   27.1383    3.9731   63.8634 C   0  0  0  0  0  0  0  0  0  0  0  0
   29.2783    4.8493   65.2303 C   0  0  0  0  0  0  0  0  0  0  0  0
   27.8826    3.0859   64.6401 C   0  0  0  0  0  0  0  0  0  0  0  0
   28.9432    3.5618   65.3091 N   0  0  0  0  0  0  0  0  0  0  0  0
   30.4223    5.2789   65.9753 N   0  0  0  0  0  0  0  0  0  0  0  0
   31.0048    6.5883   65.8937 C   0  0  0  0  0  0  0  0  0  0  0  0
   30.7778    7.4958   64.8485 C   0  0  0  0  0  0  0  0  0  0  0  0
   31.8580    6.9355   66.9303 C   0  0  0  0  0  0  0  0  0  0  0  0
   31.4247    8.7376   64.8626 C   0  0  0  0  0  0  0  0  0  0  0  0
   32.4838    8.1647   66.9513 C   0  0  0  0  0  0  0  0  0  0  0  0
   32.2705    9.0727   65.9318 C   0  0  0  0  0  0  0  0  0  0  0  0
   32.9919   10.3817   66.0297 C   0  0  0  0  0  0  0  0  0  0  0  0
   32.6623   11.3438   65.2870 O   0  0  0  0  0  0  0  0  0  0  0  0
   33.9477   10.5128   66.8517 O   0  0  0  0  0  0  0  0  0  0  0  0
  1  2  1  0
  2  3  2  0
  2  4  1  0
  3  5  1  0
  3  6  1  0
  4  7  2  0
  5  8  1  0
  6  9  2  0
  8 10  2  0
  8 11  1  0
 10 12  1  0
 11 13  2  0
 12 14  2  0
 12 15  1  0
 15 16  1  0
 16 17  2  0
 16 18  1  0
 17 19  1  0
 18 20  2  0
 19 21  2  0
 21 22  1  0
 22 23  2  0
 22 24  1  0
  7  9  1  0
 13 14  1  0
 20 21  1  0
M  CHG  1  24  -1
M  END
>  <Molecule Name>  (219) 
BAZFHAGOCKJYHX-JNMKGCMKNA-M

>  <hs_clash>  (219) 
2.0

>  <hs_total>  (219) 
50.82402962890362

>  <Total Molweight>  (219) 
339.761

>  <cLogP>  (219) 
1.5524

>  <H-Acceptors>  (219) 
6

>  <H-Donors>  (219) 
2

>  <Polar Surface Area>  (219) 
89.97

>  <Non-H Atoms>  (219) 
24

>  <sp3-Atoms>  (219) 
1

$$$$
WGPQOBMGPFXDSX-XFDRBGHPNA-N
     RDKit          3D

 23 25  0  0  0  0  0  0  0  0999 V2000
   26.9669    7.8590   62.4993 S   0  0  0  0  0  0  0  0  0  0  0  0
   25.5401    8.1845   61.5555 C   0  0  0  0  0  0  0  0  0  0  0  0
   26.3706    6.2360   62.7814 C   0  0  0  0  0  0  0  0  0  0  0  0
   24.7083    7.1759   61.4373 N   0  0  0  0  0  0  0  0  0  0  0  0
   25.3094    9.4076   61.0576 N   0  0  0  0  0  0  0  0  0  0  0  0
   27.2161    5.3651   63.6158 C   0  0  0  0  0  0  0  0  0  0  0  0
   25.1429    6.0567   62.1217 C   0  0  0  0  0  0  0  0  0  0  0  0
   28.2734    6.0015   64.1428 N   0  0  0  0  0  0  0  0  0  0  0  0
   26.9527    4.0225   63.8552 C   0  0  0  0  0  0  0  0  0  0  0  0
   24.2986    4.8277   62.0994 C   0  0  0  0  0  0  0  0  0  0  0  0
   29.1109    5.2741   64.9131 C   0  0  0  0  0  0  0  0  0  0  0  0
   27.8719    3.3854   64.6732 C   0  0  0  0  0  0  0  0  0  0  0  0
   28.9527    3.9776   65.2092 N   0  0  0  0  0  0  0  0  0  0  0  0
   30.1979    5.8706   65.4639 N   0  0  0  0  0  0  0  0  0  0  0  0
   30.7714    7.1551   65.3823 C   0  0  0  0  0  0  0  0  0  0  0  0
   31.7422    7.5210   66.3128 C   0  0  0  0  0  0  0  0  0  0  0  0
   30.3556    8.0728   64.4238 C   0  0  0  0  0  0  0  0  0  0  0  0
   32.2962    8.7895   66.2860 C   0  0  0  0  0  0  0  0  0  0  0  0
   30.9072    9.3416   64.3791 C   0  0  0  0  0  0  0  0  0  0  0  0
   31.8899    9.6934   65.3078 C   0  0  0  0  0  0  0  0  0  0  0  0
   32.5696   11.0084   65.2111 N   0  0  0  0  0  0  0  0  0  0  0  0
   33.9380   10.8995   64.6207 C   0  0  0  0  0  0  0  0  0  0  0  0
   31.7604   12.0540   64.5182 C   0  0  0  0  0  0  0  0  0  0  0  0
  1  2  1  0
  1  3  1  0
  2  4  2  0
  2  5  1  0
  3  6  1  0
  3  7  2  0
  6  8  2  0
  6  9  1  0
  7 10  1  0
  8 11  1  0
  9 12  2  0
 11 13  2  0
 11 14  1  0
 14 15  1  0
 15 16  2  0
 15 17  1  0
 16 18  1  0
 17 19  2  0
 18 20  2  0
 20 21  1  0
 21 22  1  0
 21 23  1  0
  4  7  1  0
 12 13  1  0
 19 20  1  0
M  END
>  <Molecule Name>  (220) 
WGPQOBMGPFXDSX-XFDRBGHPNA-N

>  <hs_clash>  (220) 
0.0

>  <hs_total>  (220) 
50.01766329748173

>  <Total Molweight>  (220) 
326.427

>  <cLogP>  (220) 
3.2279

>  <H-Acceptors>  (220) 
6

>  <H-Donors>  (220) 
2

>  <Polar Surface Area>  (220) 
108.2

>  <Non-H Atoms>  (220) 
23

>  <sp3-Atoms>  (220) 
3

$$$$
AKFVRSQELXTCFW-IGVQRHPJNA-O
     RDKit          3D

 24 26  0  0  0  0  0  0  0  0999 V2000
   32.9179   11.2214   64.8076 S   0  0  0  0  0  0  0  0  0  0  0  0
   32.2395   12.4040   65.2671 O   0  0  0  0  0  0  0  0  0  0  0  0
   34.0176   10.9287   65.6876 O   0  0  0  0  0  0  0  0  0  0  0  0
   33.4677   11.4652   63.3247 N   0  0  0  0  0  0  0  0  0  0  0  0
   31.7920    9.8687   64.8042 C   0  0  0  0  0  0  0  0  0  0  0  0
   30.7527    9.8441   63.8827 C   0  0  0  0  0  0  0  0  0  0  0  0
   31.9177    8.8489   65.7444 C   0  0  0  0  0  0  0  0  0  0  0  0
   29.8460    8.7968   63.8938 C   0  0  0  0  0  0  0  0  0  0  0  0
   31.0111    7.7915   65.7496 C   0  0  0  0  0  0  0  0  0  0  0  0
   29.9776    7.7670   64.8187 C   0  0  0  0  0  0  0  0  0  0  0  0
   28.9755    6.6552   64.8113 C   0  0  0  0  0  0  0  0  0  0  0  0
   27.8593    6.6235   64.0237 O   0  0  0  0  0  0  0  0  0  0  0  0
   28.9761    5.5152   65.6085 C   0  0  0  0  0  0  0  0  0  0  0  0
   27.1761    5.4646   64.2658 C   0  0  0  0  0  0  0  0  0  0  0  0
   27.8522    4.7689   65.2666 C   0  0  0  0  0  0  0  0  0  0  0  0
   25.9075    5.0741   63.6067 C   0  0  0  0  0  0  0  0  0  0  0  0
   25.4395    5.8045   62.5776 C   0  0  0  0  0  0  0  0  0  0  0  0
   25.2287    3.7874   63.9918 C   0  0  0  0  0  0  0  0  0  0  0  0
   26.2784    7.0390   61.8575 S   0  0  0  0  0  0  0  0  0  0  0  0
   24.2360    5.5755   61.9152 C   0  0  0  0  0  0  0  0  0  0  0  0
   25.0836    7.2713   60.7297 C   0  0  0  0  0  0  0  0  0  0  0  0
   23.4200    4.7157   62.2352 O   0  0  0  0  0  0  0  0  0  0  0  0
   24.0647    6.4198   60.8897 N   0  0  0  0  0  0  0  0  0  0  0  0
   25.1357    8.1521   59.8159 N   0  0  0  0  0  0  0  0  0  0  0  0
  1  2  2  0
  1  3  2  0
  1  4  1  0
  1  5  1  0
  5  6  2  0
  5  7  1  0
  6  8  1  0
  7  9  2  0
  8 10  2  0
 10 11  1  0
 11 12  1  0
 11 13  2  0
 12 14  1  0
 13 15  1  0
 14 16  1  0
 16 17  2  0
 16 18  1  0
 17 19  1  0
 17 20  1  0
 19 21  1  0
 20 22  2  0
 20 23  1  0
 21 24  2  0
  9 10  1  0
 14 15  2  0
 21 23  1  0
M  CHG  1  24   1
M  END
>  <Molecule Name>  (221) 
AKFVRSQELXTCFW-IGVQRHPJNA-O

>  <hs_clash>  (221) 
3.0

>  <hs_total>  (221) 
48.590025771474785

>  <Total Molweight>  (221) 
364.425

>  <cLogP>  (221) 
1.5961

>  <H-Acceptors>  (221) 
7

>  <H-Donors>  (221) 
3

>  <Polar Surface Area>  (221) 
161.67

>  <Non-H Atoms>  (221) 
24

>  <sp3-Atoms>  (221) 
3

$$$$
OMZYUVOATZSGJY-NDKGDYFDNA-N
     RDKit          3D

 13 14  0  0  0  0  0  0  0  0999 V2000
   28.3829    5.6549   65.8387 Br  0  0  0  0  0  0  0  0  0  0  0  0
   26.8444    6.0607   64.8538 C   0  0  0  0  0  0  0  0  0  0  0  0
   26.0384    5.0033   64.5492 C   0  0  0  0  0  0  0  0  0  0  0  0
   26.5299    7.3443   64.4473 C   0  0  0  0  0  0  0  0  0  0  0  0
   26.5157    3.2559   65.1197 Br  0  0  0  0  0  0  0  0  0  0  0  0
   24.9033    5.2429   63.8230 C   0  0  0  0  0  0  0  0  0  0  0  0
   27.6556    8.7710   64.8881 Br  0  0  0  0  0  0  0  0  0  0  0  0
   25.3895    7.6086   63.7185 C   0  0  0  0  0  0  0  0  0  0  0  0
   23.8366    3.7818   63.4318 Br  0  0  0  0  0  0  0  0  0  0  0  0
   24.5324    6.4965   63.3881 C   0  0  0  0  0  0  0  0  0  0  0  0
   24.8670    8.7809   63.2083 N   0  0  0  0  0  0  0  0  0  0  0  0
   23.4404    6.9361   62.6648 N   0  0  0  0  0  0  0  0  0  0  0  0
   23.6640    8.3456   62.5651 N   0  0  0  0  0  0  0  0  0  0  0  0
  1  2  1  0
  2  3  1  0
  2  4  2  0
  3  5  1  0
  3  6  2  0
  4  7  1  0
  4  8  1  0
  6  9  1  0
  6 10  1  0
  8 11  2  0
 10 12  2  0
 11 13  1  0
  8 10  1  0
 12 13  1  0
M  END
>  <Molecule Name>  (222) 
OMZYUVOATZSGJY-NDKGDYFDNA-N

>  <hs_clash>  (222) 
0.0

>  <hs_total>  (222) 
48.135205156453395

>  <Total Molweight>  (222) 
434.711

>  <cLogP>  (222) 
3.539

>  <H-Acceptors>  (222) 
3

>  <H-Donors>  (222) 
1

>  <Polar Surface Area>  (222) 
41.57

>  <Non-H Atoms>  (222) 
13

>  <sp3-Atoms>  (222) 
0

$$$$
LESNOWHOOHPPHR-LLDOCCBONA-N
     RDKit          3D

 16 17  0  0  0  0  0  0  0  0999 V2000
   24.5595    4.7567   61.7580 F   0  0  0  0  0  0  0  0  0  0  0  0
   25.5567    4.5833   62.6617 C   0  0  0  0  0  0  0  0  0  0  0  0
   26.4875    5.6258   62.8988 C   0  0  0  0  0  0  0  0  0  0  0  0
   25.6658    3.3561   63.3564 C   0  0  0  0  0  0  0  0  0  0  0  0
   27.5684    5.4733   63.8511 C   0  0  0  0  0  0  0  0  0  0  0  0
   26.7037    3.1591   64.3002 C   0  0  0  0  0  0  0  0  0  0  0  0
   28.4677    6.5031   64.0438 C   0  0  0  0  0  0  0  0  0  0  0  0
   27.6699    4.1936   64.5751 C   0  0  0  0  0  0  0  0  0  0  0  0
   29.5051    6.3628   64.9353 N   0  0  0  0  0  0  0  0  0  0  0  0
   28.3697    7.6925   63.3462 N   0  0  0  0  0  0  0  0  0  0  0  0
   28.6002    4.0063   65.4250 O   0  0  0  0  0  0  0  0  0  0  0  0
   30.4127    7.3455   65.1360 C   0  0  0  0  0  0  0  0  0  0  0  0
   29.2896    8.6968   63.5434 C   0  0  0  0  0  0  0  0  0  0  0  0
   30.3083    8.5142   64.4402 N   0  0  0  0  0  0  0  0  0  0  0  0
   31.4144    7.1578   66.0191 N   0  0  0  0  0  0  0  0  0  0  0  0
   29.1937    9.8073   62.8898 N   0  0  0  0  0  0  0  0  0  0  0  0
  1  2  1  0
  2  3  2  0
  2  4  1  0
  3  5  1  0
  4  6  2  0
  5  7  1  0
  5  8  2  0
  7  9  2  0
  7 10  1  0
  8 11  1  0
  9 12  1  0
 10 13  2  0
 12 14  2  0
 12 15  1  0
 13 16  1  0
  6  8  1  0
 13 14  1  0
M  END
>  <Molecule Name>  (223) 
LESNOWHOOHPPHR-LLDOCCBONA-N

>  <hs_clash>  (223) 
0.0

>  <hs_total>  (223) 
46.95893240868984

>  <Total Molweight>  (223) 
221.195

>  <cLogP>  (223) 
0.7552

>  <H-Acceptors>  (223) 
6

>  <H-Donors>  (223) 
3

>  <Polar Surface Area>  (223) 
110.94

>  <Non-H Atoms>  (223) 
16

>  <sp3-Atoms>  (223) 
1

$$$$
QPFWOQDGUBRECV-VFGNDSCDNA-N
     RDKit          3D

 32 35  0  0  0  0  0  0  0  0999 V2000
   33.3698   10.8072   64.6499 S   0  0  0  0  0  0  0  0  0  0  0  0
   33.6829   11.1064   65.7270 O   0  0  0  0  0  0  0  0  0  0  0  0
   34.2687   10.3047   64.1208 O   0  0  0  0  0  0  0  0  0  0  0  0
   32.9512   11.7973   63.9803 N   0  0  0  0  0  0  0  0  0  0  0  0
   32.4211    9.8603   64.7452 C   0  0  0  0  0  0  0  0  0  0  0  0
   31.6692    9.7657   63.9708 C   0  0  0  0  0  0  0  0  0  0  0  0
   32.4341    9.1883   65.5961 C   0  0  0  0  0  0  0  0  0  0  0  0
   30.9139    8.9934   64.0543 C   0  0  0  0  0  0  0  0  0  0  0  0
   31.6819    8.4017   65.6599 C   0  0  0  0  0  0  0  0  0  0  0  0
   30.9084    8.3132   64.9046 C   0  0  0  0  0  0  0  0  0  0  0  0
   30.2137    7.5344   64.9460 N   0  0  0  0  0  0  0  0  0  0  0  0
   29.3931    7.5282   64.4271 N   0  0  0  0  0  0  0  0  0  0  0  0
   28.7310    6.7210   64.4241 C   0  0  0  0  0  0  0  0  0  0  0  0
   28.8903    5.7720   64.9238 C   0  0  0  0  0  0  0  0  0  0  0  0
   27.9064    6.5721   63.7337 C   0  0  0  0  0  0  0  0  0  0  0  0
   29.5902    5.5848   65.5519 O   0  0  0  0  0  0  0  0  0  0  0  0
   28.1746    5.0900   64.6159 N   0  0  0  0  0  0  0  0  0  0  0  0
   27.5555    5.5600   63.9123 C   0  0  0  0  0  0  0  0  0  0  0  0
   27.3559    7.2266   63.0530 C   0  0  0  0  0  0  0  0  0  0  0  0
   26.6712    5.1986   63.4014 C   0  0  0  0  0  0  0  0  0  0  0  0
   26.4638    6.8512   62.5446 C   0  0  0  0  0  0  0  0  0  0  0  0
   26.1356    5.8311   62.7000 C   0  0  0  0  0  0  0  0  0  0  0  0
   25.8206    7.5187   61.7971 C   0  0  0  0  0  0  0  0  0  0  0  0
   24.9096    7.2764   61.6188 O   0  0  0  0  0  0  0  0  0  0  0  0
   26.2698    8.3816   61.4530 N   0  0  0  0  0  0  0  0  0  0  0  0
   25.7287    9.1103   60.7484 C   0  0  0  0  0  0  0  0  0  0  0  0
   25.5820   10.1620   61.2878 C   0  0  0  0  0  0  0  0  0  0  0  0
   26.6148   10.7224   61.4539 C   0  0  0  0  0  0  0  0  0  0  0  0
   27.0360   11.4263   60.8215 N   0  0  0  0  0  0  0  0  0  0  0  0
   27.2445   10.6064   62.2646 C   0  0  0  0  0  0  0  0  0  0  0  0
   27.9268   11.7410   61.2389 C   0  0  0  0  0  0  0  0  0  0  0  0
   28.0583   11.2305   62.1282 N   0  0  0  0  0  0  0  0  0  0  0  0
  1  2  2  0
  1  3  2  0
  1  4  1  0
  1  5  1  0
  5  6  2  0
  5  7  1  0
  6  8  1  0
  7  9  2  0
  8 10  2  0
 10 11  1  0
 11 12  2  0
 12 13  1  0
 13 14  2  0
 13 15  1  0
 14 16  1  0
 14 17  1  0
 15 18  2  0
 15 19  1  0
 18 20  1  0
 19 21  2  0
 20 22  2  0
 21 23  1  0
 23 24  2  0
 23 25  1  0
 25 26  1  0
 26 27  1  0
 27 28  1  0
 28 29  1  0
 28 30  2  0
 29 31  2  0
 30 32  1  0
  9 10  1  0
 17 18  1  0
 21 22  1  0
 31 32  1  0
M  END
>  <Molecule Name>  (224) 
QPFWOQDGUBRECV-VFGNDSCDNA-N

>  <hs_clash>  (224) 
2.0

>  <hs_total>  (224) 
46.63996031515513

>  <Total Molweight>  (224) 
453.482

>  <cLogP>  (224) 
2.1721

>  <H-Acceptors>  (224) 
11

>  <H-Donors>  (224) 
5

>  <Polar Surface Area>  (224) 
187.06

>  <Non-H Atoms>  (224) 
32

>  <sp3-Atoms>  (224) 
4

$$$$
ZUZDKICRQXWQSH-QPJQQBGINA-N
     RDKit          3D

 28 32  0  0  0  0  0  0  0  0999 V2000
   33.7638   11.2624   64.4865 S   0  0  0  0  0  0  0  0  0  0  0  0
   33.8354   12.6722   64.2092 O   0  0  0  0  0  0  0  0  0  0  0  0
   34.8027   10.3759   64.0449 O   0  0  0  0  0  0  0  0  0  0  0  0
   32.2228   10.5561   63.9253 C   0  0  0  0  0  0  0  0  0  0  0  0
   33.3389   10.8966   66.2088 C   0  0  0  0  0  0  0  0  0  0  0  0
   31.7675    9.5568   64.9166 C   0  0  0  0  0  0  0  0  0  0  0  0
   32.3390    9.7883   66.2501 C   0  0  0  0  0  0  0  0  0  0  0  0
   30.8887    8.4155   64.6641 C   0  0  0  0  0  0  0  0  0  0  0  0
   31.9455    8.9396   67.3998 C   0  0  0  0  0  0  0  0  0  0  0  0
   30.4983    7.5141   65.7985 C   0  0  0  0  0  0  0  0  0  0  0  0
   31.0373    7.7919   67.1609 C   0  0  0  0  0  0  0  0  0  0  0  0
   29.6723    6.4231   65.6566 N   0  0  0  0  0  0  0  0  0  0  0  0
   28.4059    6.3904   64.8917 C   0  0  0  0  0  0  0  0  0  0  0  0
   27.6124    5.3648   64.5027 C   0  0  0  0  0  0  0  0  0  0  0  0
   27.5950    3.9471   64.9773 C   0  0  0  0  0  0  0  0  0  0  0  0
   26.5275    5.3860   63.5437 C   0  0  0  0  0  0  0  0  0  0  0  0
   28.4463    3.4710   65.7122 O   0  0  0  0  0  0  0  0  0  0  0  0
   26.5046    3.2902   64.4537 N   0  0  0  0  0  0  0  0  0  0  0  0
   25.8212    4.1176   63.6026 C   0  0  0  0  0  0  0  0  0  0  0  0
   26.1080    6.4410   62.5954 C   0  0  0  0  0  0  0  0  0  0  0  0
   24.5958    3.8911   62.7961 C   0  0  0  0  0  0  0  0  0  0  0  0
   24.8874    6.2723   61.7451 C   0  0  0  0  0  0  0  0  0  0  0  0
   24.1142    4.9886   61.9028 C   0  0  0  0  0  0  0  0  0  0  0  0
   24.4359    7.3210   60.8402 C   0  0  0  0  0  0  0  0  0  0  0  0
   23.1163    7.5362   60.5325 O   0  0  0  0  0  0  0  0  0  0  0  0
   25.2083    8.3030   60.1350 C   0  0  0  0  0  0  0  0  0  0  0  0
   23.0934    8.7237   59.8466 C   0  0  0  0  0  0  0  0  0  0  0  0
   24.3391    9.1384   59.5255 N   0  0  0  0  0  0  0  0  0  0  0  0
  1  2  2  0
  1  3  2  0
  1  4  1  0
  1  5  1  0
  4  6  1  0
  5  7  1  0
  6  8  2  0
  7  9  2  0
  8 10  1  0
  9 11  1  0
 10 12  1  0
 12 13  2  0
 13 14  1  0
 14 15  2  0
 14 16  1  0
 15 17  1  0
 15 18  1  0
 16 19  2  0
 16 20  1  0
 19 21  1  0
 20 22  2  0
 21 23  2  0
 22 24  1  0
 24 25  1  0
 24 26  2  0
 25 27  1  0
 26 28  1  0
  6  7  1  0
 10 11  2  0
 18 19  1  0
 22 23  1  0
 27 28  2  0
M  END
>  <Molecule Name>  (225) 
ZUZDKICRQXWQSH-QPJQQBGINA-N

>  <hs_clash>  (225) 
5.0

>  <hs_total>  (225) 
45.34012184275444

>  <Total Molweight>  (225) 
393.422

>  <cLogP>  (225) 
3.1295

>  <H-Acceptors>  (225) 
7

>  <H-Donors>  (225) 
2

>  <Polar Surface Area>  (225) 
116.93

>  <Non-H Atoms>  (225) 
28

>  <sp3-Atoms>  (225) 
4

$$$$
BUKMSYYNNHEANR-SCHLAJRVNA-M
     RDKit          3D

 23 25  0  0  0  0  0  0  0  0999 V2000
   32.9714   11.0220   65.5425 O   0  0  0  0  0  0  0  0  0  0  0  0
   33.2875    9.9994   66.2113 C   0  0  0  0  0  0  0  0  0  0  0  0
   34.2704   10.0408   67.0125 O   0  0  0  0  0  0  0  0  0  0  0  0
   32.5133    8.7290   66.0904 C   0  0  0  0  0  0  0  0  0  0  0  0
   32.6513    7.8147   67.1155 C   0  0  0  0  0  0  0  0  0  0  0  0
   31.6787    8.4467   65.0084 C   0  0  0  0  0  0  0  0  0  0  0  0
   31.9746    6.6137   67.0921 C   0  0  0  0  0  0  0  0  0  0  0  0
   30.9849    7.2307   64.9828 C   0  0  0  0  0  0  0  0  0  0  0  0
   31.1374    6.3179   66.0314 C   0  0  0  0  0  0  0  0  0  0  0  0
   30.4842    5.0469   66.1084 N   0  0  0  0  0  0  0  0  0  0  0  0
   29.3979    4.6210   65.2858 C   0  0  0  0  0  0  0  0  0  0  0  0
   28.7841    5.5052   64.4987 N   0  0  0  0  0  0  0  0  0  0  0  0
   29.0218    3.3382   65.3221 N   0  0  0  0  0  0  0  0  0  0  0  0
   27.7706    5.1314   63.7005 C   0  0  0  0  0  0  0  0  0  0  0  0
   28.0068    2.8882   64.5638 C   0  0  0  0  0  0  0  0  0  0  0  0
   27.1755    6.1282   62.8573 N   0  0  0  0  0  0  0  0  0  0  0  0
   27.3608    3.7955   63.7207 C   0  0  0  0  0  0  0  0  0  0  0  0
   26.0004    5.9447   62.0613 C   0  0  0  0  0  0  0  0  0  0  0  0
   24.8453    5.4102   62.6184 C   0  0  0  0  0  0  0  0  0  0  0  0
   25.9961    6.3453   60.7320 C   0  0  0  0  0  0  0  0  0  0  0  0
   23.6922    5.2365   61.8618 C   0  0  0  0  0  0  0  0  0  0  0  0
   24.8342    6.1837   59.9823 C   0  0  0  0  0  0  0  0  0  0  0  0
   23.6797    5.6280   60.5277 C   0  0  0  0  0  0  0  0  0  0  0  0
  1  2  2  0
  2  3  1  0
  2  4  1  0
  4  5  2  0
  4  6  1  0
  5  7  1  0
  6  8  2  0
  7  9  2  0
  9 10  1  0
 10 11  1  0
 11 12  2  0
 11 13  1  0
 12 14  1  0
 13 15  2  0
 14 16  1  0
 14 17  2  0
 16 18  1  0
 18 19  2  0
 18 20  1  0
 19 21  1  0
 20 22  2  0
 21 23  2  0
  8  9  1  0
 15 17  1  0
 22 23  1  0
M  CHG  1   3  -1
M  END
>  <Molecule Name>  (226) 
BUKMSYYNNHEANR-SCHLAJRVNA-M

>  <hs_clash>  (226) 
3.0

>  <hs_total>  (226) 
44.32766005527787

>  <Total Molweight>  (226) 
305.316

>  <cLogP>  (226) 
0.9464

>  <H-Acceptors>  (226) 
6

>  <H-Donors>  (226) 
2

>  <Polar Surface Area>  (226) 
89.97

>  <Non-H Atoms>  (226) 
23

>  <sp3-Atoms>  (226) 
1

$$$$
XMPHNZMDLSUDQI-UHFFFAOYNA-N
     RDKit          3D

 21 24  0  0  0  0  0  0  0  0999 V2000
   23.2399    6.7549   61.3921 Br  0  0  0  0  0  0  0  0  0  0  0  0
   24.3593    5.6959   62.4002 C   0  0  0  0  0  0  0  0  0  0  0  0
   25.5675    6.2453   62.8896 C   0  0  0  0  0  0  0  0  0  0  0  0
   23.9983    4.3573   62.6426 C   0  0  0  0  0  0  0  0  0  0  0  0
   26.3751    5.4027   63.6781 C   0  0  0  0  0  0  0  0  0  0  0  0
   24.8260    3.5386   63.4267 C   0  0  0  0  0  0  0  0  0  0  0  0
   27.6965    5.5613   64.3859 C   0  0  0  0  0  0  0  0  0  0  0  0
   25.9534    4.0805   63.9383 C   0  0  0  0  0  0  0  0  0  0  0  0
   27.9199    4.2729   65.0873 C   0  0  0  0  0  0  0  0  0  0  0  0
   28.5326    6.5663   64.4739 C   0  0  0  0  0  0  0  0  0  0  0  0
   26.9227    3.4029   64.6994 N   0  0  0  0  0  0  0  0  0  0  0  0
   28.9561    3.9385   65.7069 O   0  0  0  0  0  0  0  0  0  0  0  0
   29.7381    6.5015   65.1927 N   0  0  0  0  0  0  0  0  0  0  0  0
   28.4465    7.9749   63.8951 C   0  0  0  0  0  0  0  0  0  0  0  0
   30.3926    7.7378   65.0902 C   0  0  0  0  0  0  0  0  0  0  0  0
   27.5534    8.4192   63.2039 O   0  0  0  0  0  0  0  0  0  0  0  0
   29.6793    8.6607   64.3407 C   0  0  0  0  0  0  0  0  0  0  0  0
   31.6553    8.0713   65.6861 C   0  0  0  0  0  0  0  0  0  0  0  0
   30.1069    9.9577   64.1280 C   0  0  0  0  0  0  0  0  0  0  0  0
   32.1029    9.3932   65.4710 C   0  0  0  0  0  0  0  0  0  0  0  0
   31.3536   10.3110   64.6977 C   0  0  0  0  0  0  0  0  0  0  0  0
  1  2  1  0
  2  3  2  0
  2  4  1  0
  3  5  1  0
  4  6  2  0
  5  7  1  0
  5  8  2  0
  7  9  2  0
  7 10  1  0
  8 11  1  0
  9 12  1  0
 10 13  2  0
 10 14  1  0
 13 15  1  0
 14 16  2  0
 14 17  1  0
 15 18  2  0
 17 19  2  0
 18 20  1  0
 19 21  1  0
  6  8  1  0
  9 11  1  0
 15 17  1  0
 20 21  2  0
M  END
>  <Molecule Name>  (227) 
XMPHNZMDLSUDQI-UHFFFAOYNA-N

>  <hs_clash>  (227) 
0.0

>  <hs_total>  (227) 
44.13986539215104

>  <Total Molweight>  (227) 
341.163

>  <cLogP>  (227) 
3.2679

>  <H-Acceptors>  (227) 
4

>  <H-Donors>  (227) 
2

>  <Polar Surface Area>  (227) 
65.45

>  <Non-H Atoms>  (227) 
21

>  <sp3-Atoms>  (227) 
1

$$$$
HUQOAEIJTCFRKQ-PHEXNGOMNA-N
     RDKit          3D

 29 31  0  0  0  0  0  0  0  0999 V2000
   33.4722   10.9532   64.6618 S   0  0  0  0  0  0  0  0  0  0  0  0
   33.8753   11.4174   66.0168 O   0  0  0  0  0  0  0  0  0  0  0  0
   34.6353   10.3001   64.0333 O   0  0  0  0  0  0  0  0  0  0  0  0
   32.9674   12.1912   63.7568 N   0  0  0  0  0  0  0  0  0  0  0  0
   32.2115    9.7535   64.7851 C   0  0  0  0  0  0  0  0  0  0  0  0
   32.2250    8.8502   65.8534 C   0  0  0  0  0  0  0  0  0  0  0  0
   31.2312    9.6598   63.7946 C   0  0  0  0  0  0  0  0  0  0  0  0
   31.2511    7.8358   65.9132 C   0  0  0  0  0  0  0  0  0  0  0  0
   30.2714    8.6476   63.8661 C   0  0  0  0  0  0  0  0  0  0  0  0
   30.2352    7.7681   64.9673 C   0  0  0  0  0  0  0  0  0  0  0  0
   29.3590    6.7433   64.9944 N   0  0  0  0  0  0  0  0  0  0  0  0
   28.2880    6.7084   64.3373 N   0  0  0  0  0  0  0  0  0  0  0  0
   27.4645    5.6394   64.3169 C   0  0  0  0  0  0  0  0  0  0  0  0
   27.6664    4.4402   64.9933 C   0  0  0  0  0  0  0  0  0  0  0  0
   26.3423    5.4365   63.4985 C   0  0  0  0  0  0  0  0  0  0  0  0
   28.6021    4.2217   65.7691 O   0  0  0  0  0  0  0  0  0  0  0  0
   26.7457    3.5433   64.6146 N   0  0  0  0  0  0  0  0  0  0  0  0
   25.8971    4.1360   63.7459 C   0  0  0  0  0  0  0  0  0  0  0  0
   25.6199    6.2645   62.6218 C   0  0  0  0  0  0  0  0  0  0  0  0
   24.7367    3.6436   63.1218 C   0  0  0  0  0  0  0  0  0  0  0  0
   24.4644    5.7662   61.9969 C   0  0  0  0  0  0  0  0  0  0  0  0
   24.0377    4.4437   62.2066 C   0  0  0  0  0  0  0  0  0  0  0  0
   23.6672    6.6909   61.0737 C   0  0  0  0  0  0  0  0  0  0  0  0
   22.5733    6.3469   60.6254 O   0  0  0  0  0  0  0  0  0  0  0  0
   24.1768    7.9288   60.8684 O   0  0  0  0  0  0  0  0  0  0  0  0
   23.4345    8.8607   60.0285 C   0  0  0  0  0  0  0  0  0  0  0  0
   24.3131   10.1182   59.9258 C   0  0  0  0  0  0  0  0  0  0  0  0
   25.6759    9.7941   59.2703 C   0  0  0  0  0  0  0  0  0  0  0  0
   24.5399   10.7255   61.3072 C   0  0  0  0  0  0  0  0  0  0  0  0
  1  2  2  0
  1  3  2  0
  1  4  1  0
  1  5  1  0
  5  6  2  0
  5  7  1  0
  6  8  1  0
  7  9  2  0
  8 10  2  0
 10 11  1  0
 11 12  2  0
 12 13  1  0
 13 14  2  0
 13 15  1  0
 14 16  1  0
 14 17  1  0
 15 18  2  0
 15 19  1  0
 18 20  1  0
 19 21  2  0
 20 22  2  0
 21 23  1  0
 23 24  2  0
 23 25  1  0
 25 26  1  0
 26 27  1  0
 27 28  1  0
 27 29  1  0
  9 10  1  0
 17 18  1  0
 21 22  1  0
M  END
>  <Molecule Name>  (228) 
HUQOAEIJTCFRKQ-PHEXNGOMNA-N

>  <hs_clash>  (228) 
9.0

>  <hs_total>  (228) 
41.385740539879784

>  <Total Molweight>  (228) 
416.457

>  <cLogP>  (228) 
3.6629

>  <H-Acceptors>  (228) 
9

>  <H-Donors>  (228) 
3

>  <Polar Surface Area>  (228) 
155.58

>  <Non-H Atoms>  (228) 
29

>  <sp3-Atoms>  (228) 
7

$$$$
UFWLHIVKHDCSHZ-OUBFLUSYNA-N
     RDKit          3D

 15 16  0  0  0  0  0  0  0  0999 V2000
   28.7216    4.0180   65.2177 O   0  0  0  0  0  0  0  0  0  0  0  0
   27.6770    4.2485   64.3572 C   0  0  0  0  0  0  0  0  0  0  0  0
   27.4969    5.5401   63.7579 C   0  0  0  0  0  0  0  0  0  0  0  0
   26.7696    3.2010   64.0594 C   0  0  0  0  0  0  0  0  0  0  0  0
   28.4507    6.6442   64.0534 C   0  0  0  0  0  0  0  0  0  0  0  0
   26.4006    5.7659   62.8691 C   0  0  0  0  0  0  0  0  0  0  0  0
   25.6785    3.4298   63.1705 C   0  0  0  0  0  0  0  0  0  0  0  0
   28.2876    7.8604   63.4846 N   0  0  0  0  0  0  0  0  0  0  0  0
   29.4866    6.4306   64.8907 N   0  0  0  0  0  0  0  0  0  0  0  0
   25.4901    4.7178   62.5754 C   0  0  0  0  0  0  0  0  0  0  0  0
   29.1649    8.8569   63.7588 C   0  0  0  0  0  0  0  0  0  0  0  0
   30.3596    7.4183   65.1663 C   0  0  0  0  0  0  0  0  0  0  0  0
   30.2026    8.6353   64.6001 N   0  0  0  0  0  0  0  0  0  0  0  0
   28.9950   10.1204   63.1653 N   0  0  0  0  0  0  0  0  0  0  0  0
   31.4238    7.1718   66.0333 N   0  0  0  0  0  0  0  0  0  0  0  0
  1  2  1  0
  2  3  2  0
  2  4  1  0
  3  5  1  0
  3  6  1  0
  4  7  2  0
  5  8  2  0
  5  9  1  0
  6 10  2  0
  8 11  1  0
  9 12  2  0
 11 13  2  0
 11 14  1  0
 12 15  1  0
  7 10  1  0
 12 13  1  0
M  END
>  <Molecule Name>  (229) 
UFWLHIVKHDCSHZ-OUBFLUSYNA-N

>  <hs_clash>  (229) 
0.0

>  <hs_total>  (229) 
41.19787174464644

>  <Total Molweight>  (229) 
203.204

>  <cLogP>  (229) 
0.6544

>  <H-Acceptors>  (229) 
6

>  <H-Donors>  (229) 
3

>  <Polar Surface Area>  (229) 
110.94

>  <Non-H Atoms>  (229) 
15

>  <sp3-Atoms>  (229) 
1

$$$$
FFMXQJGTUTXUCC-OUBFLUSYNA-N
     RDKit          3D

 16 17  0  0  0  0  0  0  0  0999 V2000
   28.5313    4.2390   65.3989 O   0  0  0  0  0  0  0  0  0  0  0  0
   27.5137    4.5177   64.4878 C   0  0  0  0  0  0  0  0  0  0  0  0
   27.4877    5.7926   63.7453 C   0  0  0  0  0  0  0  0  0  0  0  0
   26.4795    3.5482   64.2646 C   0  0  0  0  0  0  0  0  0  0  0  0
   28.4587    6.7659   63.8978 C   0  0  0  0  0  0  0  0  0  0  0  0
   26.3929    6.0077   62.8188 C   0  0  0  0  0  0  0  0  0  0  0  0
   25.4228    3.7941   63.3473 C   0  0  0  0  0  0  0  0  0  0  0  0
   28.4056    7.9398   63.1757 N   0  0  0  0  0  0  0  0  0  0  0  0
   29.5105    6.5894   64.7636 N   0  0  0  0  0  0  0  0  0  0  0  0
   25.3609    5.0161   62.6195 C   0  0  0  0  0  0  0  0  0  0  0  0
   29.3743    8.9023   63.3182 C   0  0  0  0  0  0  0  0  0  0  0  0
   30.4801    7.5246   64.9219 C   0  0  0  0  0  0  0  0  0  0  0  0
   24.4038    5.1831   61.8299 O   0  0  0  0  0  0  0  0  0  0  0  0
   30.4182    8.6957   64.1938 N   0  0  0  0  0  0  0  0  0  0  0  0
   29.3010    9.9879   62.6296 N   0  0  0  0  0  0  0  0  0  0  0  0
   31.4470    7.3038   65.7435 N   0  0  0  0  0  0  0  0  0  0  0  0
  1  2  1  0
  2  3  2  0
  2  4  1  0
  3  5  1  0
  3  6  1  0
  4  7  2  0
  5  8  2  0
  5  9  1  0
  6 10  2  0
  8 11  1  0
  9 12  2  0
 10 13  1  0
 11 14  2  0
 11 15  1  0
 12 16  1  0
  7 10  1  0
 12 14  1  0
M  END
>  <Molecule Name>  (230) 
FFMXQJGTUTXUCC-OUBFLUSYNA-N

>  <hs_clash>  (230) 
0.0

>  <hs_total>  (230) 
40.41028781464052

>  <Total Molweight>  (230) 
219.203

>  <cLogP>  (230) 
0.3087

>  <H-Acceptors>  (230) 
7

>  <H-Donors>  (230) 
4

>  <Polar Surface Area>  (230) 
131.17

>  <Non-H Atoms>  (230) 
16

>  <sp3-Atoms>  (230) 
2

$$$$
DGGPZPWZNMDOFP-QURGRASLNA-N
     RDKit          3D

 27 30  0  0  0  0  0  0  0  0999 V2000
   34.1569   11.6403   64.8653 S   0  0  0  0  0  0  0  0  0  0  0  0
   34.7457   10.3557   64.5770 O   0  0  0  0  0  0  0  0  0  0  0  0
   35.0100   12.6920   65.3558 O   0  0  0  0  0  0  0  0  0  0  0  0
   33.5845   12.2225   63.4335 N   0  0  0  0  0  0  0  0  0  0  0  0
   32.7811   11.4142   65.9968 C   0  0  0  0  0  0  0  0  0  0  0  0
   32.7917   13.4371   63.3409 C   0  0  0  0  0  0  0  0  0  0  0  0
   31.8996   10.2227   65.7538 C   0  0  0  0  0  0  0  0  0  0  0  0
   31.9018    9.0616   66.6819 C   0  0  0  0  0  0  0  0  0  0  0  0
   31.1158   10.1749   64.5010 C   0  0  0  0  0  0  0  0  0  0  0  0
   31.1700    7.8285   66.3222 C   0  0  0  0  0  0  0  0  0  0  0  0
   30.4619    8.9356   64.1003 C   0  0  0  0  0  0  0  0  0  0  0  0
   30.4034    7.7741   65.0544 C   0  0  0  0  0  0  0  0  0  0  0  0
   29.6283    6.6766   64.8395 N   0  0  0  0  0  0  0  0  0  0  0  0
   28.4399    6.6994   64.4458 N   0  0  0  0  0  0  0  0  0  0  0  0
   27.6038    5.5273   64.2781 C   0  0  0  0  0  0  0  0  0  0  0  0
   27.7543    4.2354   65.0080 C   0  0  0  0  0  0  0  0  0  0  0  0
   26.4614    5.3337   63.4238 C   0  0  0  0  0  0  0  0  0  0  0  0
   28.6427    4.0655   65.8444 O   0  0  0  0  0  0  0  0  0  0  0  0
   26.7907    3.3633   64.5816 N   0  0  0  0  0  0  0  0  0  0  0  0
   25.8026    6.2345   62.4748 C   0  0  0  0  0  0  0  0  0  0  0  0
   25.9770    3.9824   63.6727 C   0  0  0  0  0  0  0  0  0  0  0  0
   26.1942    7.8120   61.9783 S   0  0  0  0  0  0  0  0  0  0  0  0
   24.5491    5.7490   61.7821 C   0  0  0  0  0  0  0  0  0  0  0  0
   24.7753    3.4844   62.9631 C   0  0  0  0  0  0  0  0  0  0  0  0
   24.8097    7.9154   60.9810 C   0  0  0  0  0  0  0  0  0  0  0  0
   24.0521    6.7856   60.9848 N   0  0  0  0  0  0  0  0  0  0  0  0
   24.0487    4.3928   62.0271 C   0  0  0  0  0  0  0  0  0  0  0  0
  1  2  2  0
  1  3  2  0
  1  4  1  0
  1  5  1  0
  4  6  1  0
  5  7  1  0
  7  8  2  0
  7  9  1  0
  8 10  1  0
  9 11  2  0
 10 12  2  0
 12 13  1  0
 13 14  2  0
 14 15  1  0
 15 16  2  0
 15 17  1  0
 16 18  1  0
 16 19  1  0
 17 20  2  0
 17 21  1  0
 20 22  1  0
 20 23  1  0
 21 24  2  0
 22 25  1  0
 23 26  1  0
 23 27  2  0
 11 12  1  0
 19 21  1  0
 24 27  1  0
 25 26  2  0
M  END
>  <Molecule Name>  (231) 
DGGPZPWZNMDOFP-QURGRASLNA-N

>  <hs_clash>  (231) 
42.0

>  <hs_total>  (231) 
39.265357693080844

>  <Total Molweight>  (231) 
401.470

>  <cLogP>  (231) 
3.2205

>  <H-Acceptors>  (231) 
8

>  <H-Donors>  (231) 
3

>  <Polar Surface Area>  (231) 
156.42

>  <Non-H Atoms>  (231) 
27

>  <sp3-Atoms>  (231) 
4

$$$$
VPUIDVRYMVIXGO-NLMIROKBNA-N
     RDKit          3D

 18 20  0  0  0  0  0  0  0  0999 V2000
   27.4397    7.8644   63.2869 O   0  0  0  0  0  0  0  0  0  0  0  0
   27.9717    6.8561   64.0707 C   0  0  0  0  0  0  0  0  0  0  0  0
   28.1956    9.0646   63.1217 C   0  0  0  0  0  0  0  0  0  0  0  0
   29.0705    7.0215   64.8454 N   0  0  0  0  0  0  0  0  0  0  0  0
   27.3212    5.5311   64.0818 C   0  0  0  0  0  0  0  0  0  0  0  0
   27.6377    9.8503   61.9497 C   0  0  0  0  0  0  0  0  0  0  0  0
   29.5601    5.9875   65.5816 C   0  0  0  0  0  0  0  0  0  0  0  0
   26.2516    5.0871   63.4420 N   0  0  0  0  0  0  0  0  0  0  0  0
   27.8661    4.4625   64.8590 C   0  0  0  0  0  0  0  0  0  0  0  0
   26.3885   10.5785   62.4247 C   0  0  0  0  0  0  0  0  0  0  0  0
   28.7289   10.7710   61.4134 C   0  0  0  0  0  0  0  0  0  0  0  0
   30.6738    6.1352   66.3547 N   0  0  0  0  0  0  0  0  0  0  0  0
   28.9759    4.7318   65.5917 C   0  0  0  0  0  0  0  0  0  0  0  0
   26.0942    3.8130   63.7817 C   0  0  0  0  0  0  0  0  0  0  0  0
   27.0628    3.4336   64.6409 N   0  0  0  0  0  0  0  0  0  0  0  0
   26.7226   12.0313   62.7075 C   0  0  0  0  0  0  0  0  0  0  0  0
   28.2589   12.0700   60.7426 C   0  0  0  0  0  0  0  0  0  0  0  0
   27.0609   12.7392   61.4090 C   0  0  0  0  0  0  0  0  0  0  0  0
  1  2  1  0
  1  3  1  0
  2  4  2  0
  2  5  1  0
  3  6  1  0
  4  7  1  0
  5  8  1  0
  5  9  2  0
  6 10  1  0
  6 11  1  0
  7 12  1  0
  7 13  2  0
  8 14  2  0
  9 15  1  0
 10 16  1  0
 11 17  1  0
 16 18  1  0
  9 13  1  0
 14 15  1  0
 17 18  1  0
M  END
>  <Molecule Name>  (232) 
VPUIDVRYMVIXGO-NLMIROKBNA-N

>  <hs_clash>  (232) 
0.0

>  <hs_total>  (232) 
37.60909446826423

>  <Total Molweight>  (232) 
246.313

>  <cLogP>  (232) 
1.9642

>  <H-Acceptors>  (232) 
5

>  <H-Donors>  (232) 
2

>  <Polar Surface Area>  (232) 
76.82

>  <Non-H Atoms>  (232) 
18

>  <sp3-Atoms>  (232) 
8

$$$$
UQAWGIKJINAKIZ-CXEUQTIONA-O
     RDKit          3D

 30 33  0  0  0  0  0  0  0  0999 V2000
   26.4668    6.4598   59.9265 Cl  0  0  0  0  0  0  0  0  0  0  0  0
   25.3238    7.1028   60.3252 C   0  0  0  0  0  0  0  0  0  0  0  0
   24.3207    6.4381   61.1967 C   0  0  0  0  0  0  0  0  0  0  0  0
   25.1134    8.4142   59.8560 C   0  0  0  0  0  0  0  0  0  0  0  0
   23.1393    7.2321   61.5681 C   0  0  0  0  0  0  0  0  0  0  0  0
   24.5066    5.0148   61.7161 C   0  0  0  0  0  0  0  0  0  0  0  0
   23.9586    9.1404   60.2277 C   0  0  0  0  0  0  0  0  0  0  0  0
   22.1671    6.6990   62.3761 Cl  0  0  0  0  0  0  0  0  0  0  0  0
   22.9682    8.5571   61.0681 C   0  0  0  0  0  0  0  0  0  0  0  0
   23.7956    4.1141   61.2645 O   0  0  0  0  0  0  0  0  0  0  0  0
   25.5745    4.7472   62.7242 C   0  0  0  0  0  0  0  0  0  0  0  0
   26.2563    5.8305   63.3271 C   0  0  0  0  0  0  0  0  0  0  0  0
   25.9431    3.4085   63.1117 C   0  0  0  0  0  0  0  0  0  0  0  0
   27.2252    5.6187   64.1978 N   0  0  0  0  0  0  0  0  0  0  0  0
   26.9930    3.1933   64.0626 C   0  0  0  0  0  0  0  0  0  0  0  0
   27.6051    4.3702   64.5879 C   0  0  0  0  0  0  0  0  0  0  0  0
   27.9184    6.5755   64.8184 C   0  0  0  0  0  0  0  0  0  0  0  0
   28.6375    4.4649   65.4946 N   0  0  0  0  0  0  0  0  0  0  0  0
   28.8054    5.8220   65.6202 C   0  0  0  0  0  0  0  0  0  0  0  0
   29.7343    6.6228   66.4330 N   0  0  0  0  0  0  0  0  0  0  0  0
   30.6624    7.6090   65.9298 C   0  0  0  0  0  0  0  0  0  0  0  0
   31.5357    8.1502   66.9176 C   0  0  0  0  0  0  0  0  0  0  0  0
   30.7356    8.0580   64.5479 C   0  0  0  0  0  0  0  0  0  0  0  0
   32.4705    9.1259   66.5548 C   0  0  0  0  0  0  0  0  0  0  0  0
   31.6851    9.0485   64.1764 C   0  0  0  0  0  0  0  0  0  0  0  0
   32.5439    9.5704   65.1958 C   0  0  0  0  0  0  0  0  0  0  0  0
   33.7341   10.7928   64.7993 S   0  0  0  0  0  0  0  0  0  0  0  0
   34.5562   10.3138   63.7162 O   0  0  0  0  0  0  0  0  0  0  0  0
   34.3750   11.1440   66.0402 O   0  0  0  0  0  0  0  0  0  0  0  0
   32.9931   12.1371   64.2400 N   0  0  0  0  0  0  0  0  0  0  0  0
  1  2  1  0
  2  3  2  0
  2  4  1  0
  3  5  1  0
  3  6  1  0
  4  7  2  0
  5  8  1  0
  5  9  2  0
  6 10  2  0
  6 11  1  0
 11 12  2  0
 11 13  1  0
 12 14  1  0
 13 15  2  0
 14 16  1  0
 14 17  1  0
 16 18  2  0
 17 19  2  0
 19 20  1  0
 20 21  1  0
 21 22  2  0
 21 23  1  0
 22 24  1  0
 23 25  2  0
 24 26  2  0
 26 27  1  0
 27 28  2  0
 27 29  2  0
 27 30  1  0
  7  9  1  0
 15 16  1  0
 18 19  1  0
 25 26  1  0
M  CHG  1  18   1
M  END
>  <Molecule Name>  (233) 
UQAWGIKJINAKIZ-CXEUQTIONA-O

>  <hs_clash>  (233) 
3.0

>  <hs_total>  (233) 
37.367017512852804

>  <Total Molweight>  (233) 
462.336

>  <cLogP>  (233) 
1.6121

>  <H-Acceptors>  (233) 
7

>  <H-Donors>  (233) 
3

>  <Polar Surface Area>  (233) 
116.19

>  <Non-H Atoms>  (233) 
30

>  <sp3-Atoms>  (233) 
1

$$$$
NOWKBXMQKRTOCM-LLDOCCBONA-N
     RDKit          3D

 16 17  0  0  0  0  0  0  0  0999 V2000
   24.2594    4.9765   61.7041 Cl  0  0  0  0  0  0  0  0  0  0  0  0
   25.5982    4.7011   62.7650 C   0  0  0  0  0  0  0  0  0  0  0  0
   26.5635    5.7290   63.0073 C   0  0  0  0  0  0  0  0  0  0  0  0
   25.7385    3.4344   63.3916 C   0  0  0  0  0  0  0  0  0  0  0  0
   27.6833    5.4977   63.8868 C   0  0  0  0  0  0  0  0  0  0  0  0
   26.8410    3.1913   64.2656 C   0  0  0  0  0  0  0  0  0  0  0  0
   28.6244    6.4903   64.1035 C   0  0  0  0  0  0  0  0  0  0  0  0
   27.8059    4.2034   64.5174 C   0  0  0  0  0  0  0  0  0  0  0  0
   28.5162    7.6366   63.3833 N   0  0  0  0  0  0  0  0  0  0  0  0
   29.6020    6.2416   65.0032 N   0  0  0  0  0  0  0  0  0  0  0  0
   28.8423    3.9355   65.3490 O   0  0  0  0  0  0  0  0  0  0  0  0
   29.4910    8.5503   63.6350 C   0  0  0  0  0  0  0  0  0  0  0  0
   30.5022    7.2289   65.1555 C   0  0  0  0  0  0  0  0  0  0  0  0
   30.5057    8.4082   64.5020 N   0  0  0  0  0  0  0  0  0  0  0  0
   29.4427    9.6498   62.9863 N   0  0  0  0  0  0  0  0  0  0  0  0
   31.4370    7.0273   65.9863 N   0  0  0  0  0  0  0  0  0  0  0  0
  1  2  1  0
  2  3  2  0
  2  4  1  0
  3  5  1  0
  4  6  2  0
  5  7  1  0
  5  8  2  0
  7  9  2  0
  7 10  1  0
  8 11  1  0
  9 12  1  0
 10 13  2  0
 12 14  2  0
 12 15  1  0
 13 16  1  0
  6  8  1  0
 13 14  1  0
M  END
>  <Molecule Name>  (234) 
NOWKBXMQKRTOCM-LLDOCCBONA-N

>  <hs_clash>  (234) 
0.0

>  <hs_total>  (234) 
36.52571711417245

>  <Total Molweight>  (234) 
237.650

>  <cLogP>  (234) 
1.2604

>  <H-Acceptors>  (234) 
6

>  <H-Donors>  (234) 
3

>  <Polar Surface Area>  (234) 
110.94

>  <Non-H Atoms>  (234) 
16

>  <sp3-Atoms>  (234) 
1

$$$$
JTPXVCKCLBROOJ-MDVJYLRGNA-N
     RDKit          3D

  8  8  0  0  0  0  0  0  0  0999 V2000
   25.3107    3.9954   62.9575 Cl  0  0  0  0  0  0  0  0  0  0  0  0
   26.5458    4.5897   63.9718 C   0  0  0  0  0  0  0  0  0  0  0  0
   26.8836    5.9040   63.9555 N   0  0  0  0  0  0  0  0  0  0  0  0
   27.1992    3.6783   64.7927 C   0  0  0  0  0  0  0  0  0  0  0  0
   27.8739    6.3722   64.7626 C   0  0  0  0  0  0  0  0  0  0  0  0
   28.1737    4.1884   65.5725 N   0  0  0  0  0  0  0  0  0  0  0  0
   28.1850    7.7211   64.7119 N   0  0  0  0  0  0  0  0  0  0  0  0
   28.5903    5.4796   65.6435 C   0  0  0  0  0  0  0  0  0  0  0  0
  1  2  1  0
  2  3  2  0
  2  4  1  0
  3  5  1  0
  4  6  2  0
  5  7  1  0
  5  8  2  0
  6  8  1  0
M  END
>  <Molecule Name>  (235) 
JTPXVCKCLBROOJ-MDVJYLRGNA-N

>  <hs_clash>  (235) 
0.0

>  <hs_total>  (235) 
35.2446454757174

>  <Total Molweight>  (235) 
129.550

>  <cLogP>  (235) 
0.0353

>  <H-Acceptors>  (235) 
3

>  <H-Donors>  (235) 
1

>  <Polar Surface Area>  (235) 
51.8

>  <Non-H Atoms>  (235) 
8

>  <sp3-Atoms>  (235) 
0

$$$$
NNPBFSPJFKAAAF-KPSZGOFPNA-N
     RDKit          3D

 26 30  0  0  0  0  0  0  0  0999 V2000
   33.7724   11.3550   64.2558 S   0  0  0  0  0  0  0  0  0  0  0  0
   34.7418   10.3595   63.7064 O   0  0  0  0  0  0  0  0  0  0  0  0
   34.1527   12.7945   64.0531 O   0  0  0  0  0  0  0  0  0  0  0  0
   32.0860   11.0167   63.7343 C   0  0  0  0  0  0  0  0  0  0  0  0
   33.4751   10.9998   66.0187 C   0  0  0  0  0  0  0  0  0  0  0  0
   31.7057    9.8511   64.6853 C   0  0  0  0  0  0  0  0  0  0  0  0
   32.4527    9.8394   65.8971 C   0  0  0  0  0  0  0  0  0  0  0  0
   30.7909    8.8168   64.4284 C   0  0  0  0  0  0  0  0  0  0  0  0
   32.1882    8.8355   66.8357 C   0  0  0  0  0  0  0  0  0  0  0  0
   30.4928    7.8520   65.3905 C   0  0  0  0  0  0  0  0  0  0  0  0
   31.2427    7.8375   66.5733 C   0  0  0  0  0  0  0  0  0  0  0  0
   29.6197    6.8570   65.1582 N   0  0  0  0  0  0  0  0  0  0  0  0
   28.5382    6.9615   64.3751 C   0  0  0  0  0  0  0  0  0  0  0  0
   27.6908    5.8617   64.1930 C   0  0  0  0  0  0  0  0  0  0  0  0
   27.7394    4.6754   64.9243 C   0  0  0  0  0  0  0  0  0  0  0  0
   26.5953    5.7574   63.3367 C   0  0  0  0  0  0  0  0  0  0  0  0
   28.6346    4.3757   65.7235 O   0  0  0  0  0  0  0  0  0  0  0  0
   26.8135    3.8278   64.4622 N   0  0  0  0  0  0  0  0  0  0  0  0
   25.9825    6.6031   62.4066 C   0  0  0  0  0  0  0  0  0  0  0  0
   26.0569    4.4807   63.5653 C   0  0  0  0  0  0  0  0  0  0  0  0
   26.3295    8.1917   61.8779 S   0  0  0  0  0  0  0  0  0  0  0  0
   24.8323    6.1892   61.6886 C   0  0  0  0  0  0  0  0  0  0  0  0
   24.9424    4.0623   62.8311 C   0  0  0  0  0  0  0  0  0  0  0  0
   25.0209    8.2992   60.8023 C   0  0  0  0  0  0  0  0  0  0  0  0
   24.3658    7.1249   60.8483 N   0  0  0  0  0  0  0  0  0  0  0  0
   24.3365    4.9006   61.8940 C   0  0  0  0  0  0  0  0  0  0  0  0
  1  2  2  0
  1  3  2  0
  1  4  1  0
  1  5  1  0
  4  6  1  0
  5  7  1  0
  6  8  2  0
  7  9  2  0
  8 10  1  0
  9 11  1  0
 10 12  1  0
 12 13  2  0
 13 14  1  0
 14 15  2  0
 14 16  1  0
 15 17  1  0
 15 18  1  0
 16 19  2  0
 16 20  1  0
 19 21  1  0
 19 22  1  0
 20 23  2  0
 21 24  1  0
 22 25  1  0
 22 26  2  0
  6  7  1  0
 10 11  2  0
 18 20  1  0
 23 26  1  0
 24 25  2  0
M  END
>  <Molecule Name>  (236) 
NNPBFSPJFKAAAF-KPSZGOFPNA-N

>  <hs_clash>  (236) 
6.0

>  <hs_total>  (236) 
32.59870757587166

>  <Total Molweight>  (236) 
383.451

>  <cLogP>  (236) 
2.7613

>  <H-Acceptors>  (236) 
6

>  <H-Donors>  (236) 
2

>  <Polar Surface Area>  (236) 
132.03

>  <Non-H Atoms>  (236) 
26

>  <sp3-Atoms>  (236) 
4

$$$$
GLZDHSRHLCFCED-VRGMUVNCNA-N
     RDKit          3D

 22 24  0  0  0  0  0  0  0  0999 V2000
   24.4102    5.0769   61.4970 Cl  0  0  0  0  0  0  0  0  0  0  0  0
   25.7130    4.7218   62.5614 C   0  0  0  0  0  0  0  0  0  0  0  0
   26.6836    5.7180   62.8478 C   0  0  0  0  0  0  0  0  0  0  0  0
   25.8118    3.4335   63.1464 C   0  0  0  0  0  0  0  0  0  0  0  0
   27.7760    5.4398   63.7316 C   0  0  0  0  0  0  0  0  0  0  0  0
   26.8866    3.1317   64.0272 C   0  0  0  0  0  0  0  0  0  0  0  0
   28.7189    6.4218   63.9848 C   0  0  0  0  0  0  0  0  0  0  0  0
   27.8701    4.1192   64.3276 C   0  0  0  0  0  0  0  0  0  0  0  0
   28.5158    7.6490   63.4425 N   0  0  0  0  0  0  0  0  0  0  0  0
   29.7873    6.0820   64.7417 N   0  0  0  0  0  0  0  0  0  0  0  0
   28.8889    3.7984   65.1708 O   0  0  0  0  0  0  0  0  0  0  0  0
   29.4903    8.5607   63.7175 C   0  0  0  0  0  0  0  0  0  0  0  0
   30.6748    7.0695   64.9394 C   0  0  0  0  0  0  0  0  0  0  0  0
   30.5909    8.3230   64.4607 N   0  0  0  0  0  0  0  0  0  0  0  0
   29.3939    9.7769   63.2521 N   0  0  0  0  0  0  0  0  0  0  0  0
   31.6856    6.7844   65.6413 N   0  0  0  0  0  0  0  0  0  0  0  0
   28.5077   10.2493   62.4238 C   0  0  0  0  0  0  0  0  0  0  0  0
   27.1024    9.9861   62.5596 C   0  0  0  0  0  0  0  0  0  0  0  0
   28.9548   11.0716   61.3538 C   0  0  0  0  0  0  0  0  0  0  0  0
   26.1749   10.5372   61.6322 C   0  0  0  0  0  0  0  0  0  0  0  0
   28.0264   11.6229   60.4324 C   0  0  0  0  0  0  0  0  0  0  0  0
   26.6379   11.3562   60.5701 C   0  0  0  0  0  0  0  0  0  0  0  0
  1  2  1  0
  2  3  2  0
  2  4  1  0
  3  5  1  0
  4  6  2  0
  5  7  1  0
  5  8  2  0
  7  9  2  0
  7 10  1  0
  8 11  1  0
  9 12  1  0
 10 13  2  0
 12 14  2  0
 12 15  1  0
 13 16  1  0
 15 17  1  0
 17 18  2  0
 17 19  1  0
 18 20  1  0
 19 21  2  0
 20 22  2  0
  6  8  1  0
 13 14  1  0
 21 22  1  0
M  END
>  <Molecule Name>  (237) 
GLZDHSRHLCFCED-VRGMUVNCNA-N

>  <hs_clash>  (237) 
0.0

>  <hs_total>  (237) 
32.07274415056134

>  <Total Molweight>  (237) 
313.747

>  <cLogP>  (237) 
3.4681

>  <H-Acceptors>  (237) 
6

>  <H-Donors>  (237) 
3

>  <Polar Surface Area>  (237) 
96.95

>  <Non-H Atoms>  (237) 
22

>  <sp3-Atoms>  (237) 
1

$$$$
LZLKFNBMXXLTLX-TUAJAQJTNA-O
     RDKit          3D

 24 27  0  0  0  0  0  0  0  0999 V2000
   24.9416    3.7140   63.2629 Br  0  0  0  0  0  0  0  0  0  0  0  0
   26.5558    4.3222   63.9378 C   0  0  0  0  0  0  0  0  0  0  0  0
   27.1338    5.5099   63.6598 N   0  0  0  0  0  0  0  0  0  0  0  0
   27.4091    3.6577   64.8265 C   0  0  0  0  0  0  0  0  0  0  0  0
   28.2959    5.5672   64.3671 C   0  0  0  0  0  0  0  0  0  0  0  0
   26.7033    6.5498   62.8363 C   0  0  0  0  0  0  0  0  0  0  0  0
   28.4932    4.4388   65.1085 N   0  0  0  0  0  0  0  0  0  0  0  0
   29.1316    6.7406   64.2717 C   0  0  0  0  0  0  0  0  0  0  0  0
   27.4654    7.6845   62.7205 C   0  0  0  0  0  0  0  0  0  0  0  0
   30.3106    6.7150   64.9630 N   0  0  0  0  0  0  0  0  0  0  0  0
   28.6871    7.7785   63.4452 C   0  0  0  0  0  0  0  0  0  0  0  0
   27.0513    8.7665   61.7897 C   0  0  0  0  0  0  0  0  0  0  0  0
   31.3571    7.6887   64.5912 C   0  0  0  0  0  0  0  0  0  0  0  0
   26.4324    8.4517   60.5703 C   0  0  0  0  0  0  0  0  0  0  0  0
   27.3271   10.1175   62.0808 C   0  0  0  0  0  0  0  0  0  0  0  0
   31.4266    8.7638   65.6329 C   0  0  0  0  0  0  0  0  0  0  0  0
   26.0550    9.4673   59.6778 C   0  0  0  0  0  0  0  0  0  0  0  0
   26.9635   11.1277   61.1834 C   0  0  0  0  0  0  0  0  0  0  0  0
   31.2824   10.1288   65.3210 C   0  0  0  0  0  0  0  0  0  0  0  0
   31.6580    8.4614   66.9819 C   0  0  0  0  0  0  0  0  0  0  0  0
   26.3187   10.8007   59.9815 C   0  0  0  0  0  0  0  0  0  0  0  0
   31.3385   11.0924   66.2627 N   0  0  0  0  0  0  0  0  0  0  0  0
   31.7371    9.3990   67.9331 N   0  0  0  0  0  0  0  0  0  0  0  0
   31.5766   10.6635   67.5219 C   0  0  0  0  0  0  0  0  0  0  0  0
  1  2  1  0
  2  3  1  0
  2  4  2  0
  3  5  1  0
  3  6  1  0
  4  7  1  0
  5  8  1  0
  6  9  2  0
  8 10  1  0
  8 11  2  0
  9 12  1  0
 10 13  1  0
 12 14  2  0
 12 15  1  0
 13 16  1  0
 14 17  1  0
 15 18  2  0
 16 19  2  0
 16 20  1  0
 17 21  2  0
 19 22  1  0
 20 23  2  0
 22 24  2  0
  5  7  2  0
  9 11  1  0
 18 21  1  0
 23 24  1  0
M  CHG  1   7   1
M  END
>  <Molecule Name>  (238) 
LZLKFNBMXXLTLX-TUAJAQJTNA-O

>  <hs_clash>  (238) 
0.0

>  <hs_total>  (238) 
31.715529438735025

>  <Total Molweight>  (238) 
381.256

>  <cLogP>  (238) 
0.608

>  <H-Acceptors>  (238) 
5

>  <H-Donors>  (238) 
2

>  <Polar Surface Area>  (238) 
56.36

>  <Non-H Atoms>  (238) 
24

>  <sp3-Atoms>  (238) 
1

$$$$
AYNMECSCXKEOGB-XEWJYKKDNA-M
     RDKit          3D

 25 27  0  0  0  0  0  0  0  0999 V2000
   32.7647   11.0183   64.5194 S   0  0  0  0  0  0  0  0  0  0  0  0
   33.5101   11.2752   65.6965 O   0  0  0  0  0  0  0  0  0  0  0  0
   33.4530   10.7518   63.3273 O   0  0  0  0  0  0  0  0  0  0  0  0
   31.7568   12.2960   64.2783 N   0  0  0  0  0  0  0  0  0  0  0  0
   31.6506    9.8121   64.8231 C   0  0  0  0  0  0  0  0  0  0  0  0
   30.5505    9.6217   63.9373 C   0  0  0  0  0  0  0  0  0  0  0  0
   31.7662    8.8972   65.8944 C   0  0  0  0  0  0  0  0  0  0  0  0
   29.6448    8.5692   64.0638 C   0  0  0  0  0  0  0  0  0  0  0  0
   30.9040    7.8080   66.0379 C   0  0  0  0  0  0  0  0  0  0  0  0
   29.8345    7.6256   65.1057 C   0  0  0  0  0  0  0  0  0  0  0  0
   29.0180    6.4761   65.2960 N   0  0  0  0  0  0  0  0  0  0  0  0
   27.8749    6.3072   64.5889 N   0  0  0  0  0  0  0  0  0  0  0  0
   27.2091    5.2005   64.7293 C   0  0  0  0  0  0  0  0  0  0  0  0
   27.5486    3.9496   65.4957 C   0  0  0  0  0  0  0  0  0  0  0  0
   25.9918    4.8765   63.9624 C   0  0  0  0  0  0  0  0  0  0  0  0
   28.4542    3.7725   66.3154 O   0  0  0  0  0  0  0  0  0  0  0  0
   26.6077    2.9692   65.1393 N   0  0  0  0  0  0  0  0  0  0  0  0
   25.6888    3.4987   64.2357 C   0  0  0  0  0  0  0  0  0  0  0  0
   25.1773    5.6178   63.0927 C   0  0  0  0  0  0  0  0  0  0  0  0
   24.6247    2.8635   63.6453 C   0  0  0  0  0  0  0  0  0  0  0  0
   24.0612    4.9436   62.5116 C   0  0  0  0  0  0  0  0  0  0  0  0
   23.8117    3.5894   62.7910 C   0  0  0  0  0  0  0  0  0  0  0  0
   23.1083    5.6394   61.5847 C   0  0  0  0  0  0  0  0  0  0  0  0
   23.2927    6.9661   61.2768 O   0  0  0  0  0  0  0  0  0  0  0  0
   22.1349    5.0938   61.0572 O   0  0  0  0  0  0  0  0  0  0  0  0
  1  2  2  0
  1  3  2  0
  1  4  1  0
  1  5  1  0
  5  6  2  0
  5  7  1  0
  6  8  1  0
  7  9  2  0
  8 10  2  0
 10 11  1  0
 11 12  2  0
 12 13  1  0
 13 14  2  0
 13 15  1  0
 14 16  1  0
 14 17  1  0
 15 18  2  0
 15 19  1  0
 18 20  1  0
 19 21  2  0
 20 22  2  0
 21 23  1  0
 23 24  2  0
 23 25  1  0
  9 10  1  0
 17 18  1  0
 21 22  1  0
M  CHG  1  25  -1
M  END
>  <Molecule Name>  (239) 
AYNMECSCXKEOGB-XEWJYKKDNA-M

>  <hs_clash>  (239) 
2.0

>  <hs_total>  (239) 
31.37314182575887

>  <Total Molweight>  (239) 
359.341

>  <cLogP>  (239) 
0.08

>  <H-Acceptors>  (239) 
9

>  <H-Donors>  (239) 
3

>  <Polar Surface Area>  (239) 
169.41

>  <Non-H Atoms>  (239) 
25

>  <sp3-Atoms>  (239) 
3

$$$$
AWSQADBSXFTFKL-NMHRWYTENA-N
     RDKit          3D

 22 24  0  0  0  0  0  0  0  0999 V2000
   25.6903    4.1753   63.4144 Br  0  0  0  0  0  0  0  0  0  0  0  0
   27.2519    4.6650   64.3870 C   0  0  0  0  0  0  0  0  0  0  0  0
   27.7046    5.9789   64.4069 C   0  0  0  0  0  0  0  0  0  0  0  0
   27.9723    3.7103   65.0919 C   0  0  0  0  0  0  0  0  0  0  0  0
   28.8090    6.2648   65.1167 N   0  0  0  0  0  0  0  0  0  0  0  0
   27.0483    6.9467   63.7596 N   0  0  0  0  0  0  0  0  0  0  0  0
   29.0570    4.0520   65.7609 N   0  0  0  0  0  0  0  0  0  0  0  0
   29.4876    5.3175   65.7813 C   0  0  0  0  0  0  0  0  0  0  0  0
   27.7087    7.8609   62.8077 C   0  0  0  0  0  0  0  0  0  0  0  0
   30.5901    5.6005   66.4741 N   0  0  0  0  0  0  0  0  0  0  0  0
   28.3506    9.0529   63.5306 C   0  0  0  0  0  0  0  0  0  0  0  0
   31.2023    6.7893   66.6068 C   0  0  0  0  0  0  0  0  0  0  0  0
   29.8475    9.0966   63.2218 C   0  0  0  0  0  0  0  0  0  0  0  0
   31.2454    7.7286   65.5770 C   0  0  0  0  0  0  0  0  0  0  0  0
   31.8560    7.0859   67.8123 C   0  0  0  0  0  0  0  0  0  0  0  0
   30.4429   10.3038   63.8215 N   0  0  0  0  0  0  0  0  0  0  0  0
   31.9028    8.9396   65.7761 C   0  0  0  0  0  0  0  0  0  0  0  0
   32.5153    8.2980   68.0136 C   0  0  0  0  0  0  0  0  0  0  0  0
   31.9468   10.1036   64.5019 S   0  0  0  0  0  0  0  0  0  0  0  0
   32.5408    9.2250   66.9803 C   0  0  0  0  0  0  0  0  0  0  0  0
   32.3814   11.4352   65.0606 O   0  0  0  0  0  0  0  0  0  0  0  0
   32.9412    9.6136   63.4994 O   0  0  0  0  0  0  0  0  0  0  0  0
  1  2  1  0
  2  3  2  0
  2  4  1  0
  3  5  1  0
  3  6  1  0
  4  7  2  0
  5  8  2  0
  6  9  1  0
  8 10  1  0
  9 11  1  0
 10 12  1  0
 11 13  1  0
 12 14  2  0
 12 15  1  0
 13 16  1  0
 14 17  1  0
 15 18  2  0
 16 19  1  0
 17 20  2  0
 19 21  2  0
 19 22  2  0
  7  8  1  0
 17 19  1  0
 18 20  1  0
M  END
>  <Molecule Name>  (240) 
AWSQADBSXFTFKL-NMHRWYTENA-N

>  <hs_clash>  (240) 
2.0

>  <hs_total>  (240) 
30.33903873610099

>  <Total Molweight>  (240) 
384.257

>  <cLogP>  (240) 
2.1351

>  <H-Acceptors>  (240) 
7

>  <H-Donors>  (240) 
3

>  <Polar Surface Area>  (240) 
104.39

>  <Non-H Atoms>  (240) 
22

>  <sp3-Atoms>  (240) 
4

$$$$
NFVBVKHGDDDCEA-QMLCPYSLNA-N
     RDKit          3D

 15 16  0  0  0  0  0  0  0  0999 V2000
   26.2967    8.6234   61.7273 S   0  0  0  0  0  0  0  0  0  0  0  0
   27.0274    9.8532   61.5693 O   0  0  0  0  0  0  0  0  0  0  0  0
   24.9018    8.6739   62.0648 O   0  0  0  0  0  0  0  0  0  0  0  0
   26.4315    7.8028   60.3562 N   0  0  0  0  0  0  0  0  0  0  0  0
   27.1091    7.7033   62.9958 C   0  0  0  0  0  0  0  0  0  0  0  0
   26.7707    6.3701   63.2729 C   0  0  0  0  0  0  0  0  0  0  0  0
   28.1230    8.3352   63.7074 C   0  0  0  0  0  0  0  0  0  0  0  0
   27.4661    5.6776   64.2944 C   0  0  0  0  0  0  0  0  0  0  0  0
   25.7594    5.6988   62.5739 C   0  0  0  0  0  0  0  0  0  0  0  0
   28.8043    7.6594   64.6927 C   0  0  0  0  0  0  0  0  0  0  0  0
   27.1275    4.3393   64.5707 C   0  0  0  0  0  0  0  0  0  0  0  0
   28.4829    6.3453   64.9877 C   0  0  0  0  0  0  0  0  0  0  0  0
   25.4350    4.3885   62.8717 C   0  0  0  0  0  0  0  0  0  0  0  0
   27.8111    3.6836   65.5408 O   0  0  0  0  0  0  0  0  0  0  0  0
   26.1146    3.7099   63.8652 C   0  0  0  0  0  0  0  0  0  0  0  0
  1  2  2  0
  1  3  2  0
  1  4  1  0
  1  5  1  0
  5  6  2  0
  5  7  1  0
  6  8  1  0
  6  9  1  0
  7 10  2  0
  8 11  1  0
  8 12  2  0
  9 13  2  0
 11 14  1  0
 11 15  2  0
 10 12  1  0
 13 15  1  0
M  END
>  <Molecule Name>  (241) 
NFVBVKHGDDDCEA-QMLCPYSLNA-N

>  <hs_clash>  (241) 
0.0

>  <hs_total>  (241) 
28.447862833661237

>  <Total Molweight>  (241) 
223.251

>  <cLogP>  (241) 
1.2723

>  <H-Acceptors>  (241) 
4

>  <H-Donors>  (241) 
2

>  <Polar Surface Area>  (241) 
88.77

>  <Non-H Atoms>  (241) 
15

>  <sp3-Atoms>  (241) 
2

$$$$
AYZRKFOEZQBUEA-BIKHUNSGNA-N
     RDKit          3D

 16 17  0  0  0  0  0  0  0  0999 V2000
   20.6132    5.6862   60.4238 O   0  0  0  0  0  0  0  0  0  0  0  0
   21.6976    5.3438   61.1569 C   0  0  0  0  0  0  0  0  0  0  0  0
   21.9929    3.9986   61.3856 C   0  0  0  0  0  0  0  0  0  0  0  0
   22.4864    6.3486   61.7027 C   0  0  0  0  0  0  0  0  0  0  0  0
   23.0852    3.6645   62.1677 C   0  0  0  0  0  0  0  0  0  0  0  0
   23.5763    6.0231   62.4829 C   0  0  0  0  0  0  0  0  0  0  0  0
   23.8849    4.6775   62.7258 C   0  0  0  0  0  0  0  0  0  0  0  0
   24.9706    4.3466   63.4988 N   0  0  0  0  0  0  0  0  0  0  0  0
   25.6487    5.2476   64.1284 N   0  0  0  0  0  0  0  0  0  0  0  0
   26.7533    4.9166   64.8505 C   0  0  0  0  0  0  0  0  0  0  0  0
   27.1370    3.6177   65.2766 C   0  0  0  0  0  0  0  0  0  0  0  0
   27.7305    5.7984   65.3021 C   0  0  0  0  0  0  0  0  0  0  0  0
   28.2640    3.7304   65.9345 N   0  0  0  0  0  0  0  0  0  0  0  0
   26.4372    2.4318   65.0398 N   0  0  0  0  0  0  0  0  0  0  0  0
   28.6576    5.0752   65.9678 N   0  0  0  0  0  0  0  0  0  0  0  0
   27.7568    7.1619   65.0874 N   0  0  0  0  0  0  0  0  0  0  0  0
  1  2  1  0
  2  3  2  0
  2  4  1  0
  3  5  1  0
  4  6  2  0
  5  7  2  0
  7  8  1  0
  8  9  2  0
  9 10  1  0
 10 11  1  0
 10 12  2  0
 11 13  2  0
 11 14  1  0
 12 15  1  0
 12 16  1  0
  6  7  1  0
 13 15  1  0
M  END
>  <Molecule Name>  (242) 
AYZRKFOEZQBUEA-BIKHUNSGNA-N

>  <hs_clash>  (242) 
0.0

>  <hs_total>  (242) 
27.00924645477761

>  <Total Molweight>  (242) 
218.219

>  <cLogP>  (242) 
0.7579

>  <H-Acceptors>  (242) 
7

>  <H-Donors>  (242) 
4

>  <Polar Surface Area>  (242) 
125.67

>  <Non-H Atoms>  (242) 
16

>  <sp3-Atoms>  (242) 
1

$$$$
OQGZVJIFCDXDFS-LLDOCCBONA-N
     RDKit          3D

 17 18  0  0  0  0  0  0  0  0999 V2000
   24.3242    4.2884   62.5987 O   0  0  0  0  0  0  0  0  0  0  0  0
   25.3197    4.3087   63.4478 C   0  0  0  0  0  0  0  0  0  0  0  0
   23.3971    3.1925   62.5145 C   0  0  0  0  0  0  0  0  0  0  0  0
   26.2977    5.3826   63.5672 C   0  0  0  0  0  0  0  0  0  0  0  0
   25.4797    3.1798   64.3342 C   0  0  0  0  0  0  0  0  0  0  0  0
   27.3695    5.3274   64.5062 C   0  0  0  0  0  0  0  0  0  0  0  0
   26.5347    3.1063   65.2772 C   0  0  0  0  0  0  0  0  0  0  0  0
   28.3473    6.4472   64.5527 C   0  0  0  0  0  0  0  0  0  0  0  0
   27.4988    4.1748   65.3806 C   0  0  0  0  0  0  0  0  0  0  0  0
   28.2099    7.5202   63.6962 N   0  0  0  0  0  0  0  0  0  0  0  0
   29.4037    6.4154   65.4301 N   0  0  0  0  0  0  0  0  0  0  0  0
   28.5323    4.1086   66.2801 O   0  0  0  0  0  0  0  0  0  0  0  0
   29.1275    8.5403   63.7226 C   0  0  0  0  0  0  0  0  0  0  0  0
   30.3178    7.4132   65.4654 C   0  0  0  0  0  0  0  0  0  0  0  0
   30.1855    8.4870   64.6071 N   0  0  0  0  0  0  0  0  0  0  0  0
   28.9865    9.5757   62.8794 N   0  0  0  0  0  0  0  0  0  0  0  0
   31.3342    7.3355   66.3340 N   0  0  0  0  0  0  0  0  0  0  0  0
  1  2  1  0
  1  3  1  0
  2  4  2  0
  2  5  1  0
  4  6  1  0
  5  7  2  0
  6  8  1  0
  6  9  2  0
  8 10  2  0
  8 11  1  0
  9 12  1  0
 10 13  1  0
 11 14  2  0
 13 15  2  0
 13 16  1  0
 14 17  1  0
  7  9  1  0
 14 15  1  0
M  END
>  <Molecule Name>  (243) 
OQGZVJIFCDXDFS-LLDOCCBONA-N

>  <hs_clash>  (243) 
0.0

>  <hs_total>  (243) 
25.37679193650272

>  <Total Molweight>  (243) 
233.230

>  <cLogP>  (243) 
0.5844

>  <H-Acceptors>  (243) 
7

>  <H-Donors>  (243) 
3

>  <Polar Surface Area>  (243) 
120.17

>  <Non-H Atoms>  (243) 
17

>  <sp3-Atoms>  (243) 
3

$$$$
LLQWUZKGZZNBKG-BUYKPOSTNA-O
     RDKit          3D

 19 21  0  0  0  0  0  0  0  0999 V2000
   22.8580    4.9501   61.0017 O   0  0  0  0  0  0  0  0  0  0  0  0
   23.8632    5.3181   61.6048 C   0  0  0  0  0  0  0  0  0  0  0  0
   24.4895    4.4119   62.4241 O   0  0  0  0  0  0  0  0  0  0  0  0
   24.3776    6.6192   61.4304 C   0  0  0  0  0  0  0  0  0  0  0  0
   25.5956    4.7497   63.1277 C   0  0  0  0  0  0  0  0  0  0  0  0
   25.4993    7.0443   62.1932 C   0  0  0  0  0  0  0  0  0  0  0  0
   26.1106    6.0494   63.0296 C   0  0  0  0  0  0  0  0  0  0  0  0
   26.1688    3.7564   63.9403 C   0  0  0  0  0  0  0  0  0  0  0  0
   26.1481    8.3295   62.0759 C   0  0  0  0  0  0  0  0  0  0  0  0
   27.2425    6.3269   63.8150 C   0  0  0  0  0  0  0  0  0  0  0  0
   27.2901    4.0695   64.6562 C   0  0  0  0  0  0  0  0  0  0  0  0
   25.6293    9.2194   61.0239 N   0  0  0  0  0  0  0  0  0  0  0  0
   27.8445    5.3502   64.6141 C   0  0  0  0  0  0  0  0  0  0  0  0
   27.8683    3.1276   65.3918 O   0  0  0  0  0  0  0  0  0  0  0  0
   25.9815   10.5849   61.4362 C   0  0  0  0  0  0  0  0  0  0  0  0
   26.2291    8.8991   59.7507 C   0  0  0  0  0  0  0  0  0  0  0  0
   25.3301   11.4367   60.4303 C   0  0  0  0  0  0  0  0  0  0  0  0
   25.8339    9.9321   58.6508 C   0  0  0  0  0  0  0  0  0  0  0  0
   26.0463   11.2136   59.1680 O   0  0  0  0  0  0  0  0  0  0  0  0
  1  2  2  0
  2  3  1  0
  2  4  1  0
  3  5  1  0
  4  6  2  0
  5  7  2  0
  5  8  1  0
  6  9  1  0
  7 10  1  0
  8 11  2  0
  9 12  1  0
 10 13  2  0
 11 14  1  0
 12 15  1  0
 12 16  1  0
 15 17  1  0
 16 18  1  0
 17 19  1  0
  6  7  1  0
 11 13  1  0
 18 19  1  0
M  CHG  1  12   1
M  END
>  <Molecule Name>  (244) 
LLQWUZKGZZNBKG-BUYKPOSTNA-O

>  <hs_clash>  (244) 
0.0

>  <hs_total>  (244) 
21.96892663647904

>  <Total Molweight>  (244) 
262.284

>  <cLogP>  (244) 
-1.6173

>  <H-Acceptors>  (244) 
5

>  <H-Donors>  (244) 
2

>  <Polar Surface Area>  (244) 
60.2

>  <Non-H Atoms>  (244) 
19

>  <sp3-Atoms>  (244) 
9

$$$$
DMTNMDIKSMRUDA-VRGMUVNCNA-N
     RDKit          3D

 22 24  0  0  0  0  0  0  0  0999 V2000
   24.1835    3.3924   63.9615 F   0  0  0  0  0  0  0  0  0  0  0  0
   24.0088    4.5640   63.6992 C   0  0  0  0  0  0  0  0  0  0  0  0
   23.7317    4.6538   62.5812 F   0  0  0  0  0  0  0  0  0  0  0  0
   23.0594    4.9964   64.3651 F   0  0  0  0  0  0  0  0  0  0  0  0
   25.2884    5.3471   63.9357 C   0  0  0  0  0  0  0  0  0  0  0  0
   26.2965    4.9989   64.7338 N   0  0  0  0  0  0  0  0  0  0  0  0
   25.4907    6.5050   63.3394 N   0  0  0  0  0  0  0  0  0  0  0  0
   27.1939    5.9916   64.6088 C   0  0  0  0  0  0  0  0  0  0  0  0
   26.6778    6.9044   63.7419 C   0  0  0  0  0  0  0  0  0  0  0  0
   28.3986    6.2099   65.1657 N   0  0  0  0  0  0  0  0  0  0  0  0
   27.3503    7.9937   63.4253 C   0  0  0  0  0  0  0  0  0  0  0  0
   29.0644    7.3391   64.8168 C   0  0  0  0  0  0  0  0  0  0  0  0
   26.7300    8.8269   62.5555 O   0  0  0  0  0  0  0  0  0  0  0  0
   28.5637    8.2363   63.9478 N   0  0  0  0  0  0  0  0  0  0  0  0
   30.2567    7.6169   65.3163 N   0  0  0  0  0  0  0  0  0  0  0  0
   27.6027    9.6968   61.8302 C   0  0  0  0  0  0  0  0  0  0  0  0
   27.0197   11.1110   61.9009 C   0  0  0  0  0  0  0  0  0  0  0  0
   25.9010   11.2525   62.9122 C   0  0  0  0  0  0  0  0  0  0  0  0
   26.4152   11.4796   60.5887 C   0  0  0  0  0  0  0  0  0  0  0  0
   25.7655   12.7954   63.1195 C   0  0  0  0  0  0  0  0  0  0  0  0
   26.1163   13.0364   60.6003 C   0  0  0  0  0  0  0  0  0  0  0  0
   25.2888   13.4561   61.8067 C   0  0  0  0  0  0  0  0  0  0  0  0
  1  2  1  0
  2  3  1  0
  2  4  1  0
  2  5  1  0
  5  6  2  0
  5  7  1  0
  6  8  1  0
  7  9  1  0
  8 10  2  0
  9 11  2  0
 10 12  1  0
 11 13  1  0
 11 14  1  0
 12 15  1  0
 13 16  1  0
 16 17  1  0
 17 18  1  0
 17 19  1  0
 18 20  1  0
 19 21  1  0
 20 22  1  0
  8  9  1  0
 12 14  2  0
 21 22  1  0
M  END
>  <Molecule Name>  (245) 
DMTNMDIKSMRUDA-VRGMUVNCNA-N

>  <hs_clash>  (245) 
2.0

>  <hs_total>  (245) 
14.385886389369048

>  <Total Molweight>  (245) 
315.298

>  <cLogP>  (245) 
2.4407

>  <H-Acceptors>  (245) 
6

>  <H-Donors>  (245) 
2

>  <Polar Surface Area>  (245) 
89.71

>  <Non-H Atoms>  (245) 
22

>  <sp3-Atoms>  (245) 
9

$$$$
BYYOTMYLPPUWCF-AAOJIYRFNA-M
     RDKit          3D

 24 27  0  0  0  0  0  0  0  0999 V2000
   23.1498    5.9534   61.4845 S   0  0  0  0  0  0  0  0  0  0  0  0
   23.9855    6.2132   60.3337 O   0  0  0  0  0  0  0  0  0  0  0  0
   22.0763    4.9985   61.1079 O   0  0  0  0  0  0  0  0  0  0  0  0
   22.5090    7.0636   62.1602 O   0  0  0  0  0  0  0  0  0  0  0  0
   24.1029    5.0936   62.7092 C   0  0  0  0  0  0  0  0  0  0  0  0
   25.2459    5.7686   63.2480 C   0  0  0  0  0  0  0  0  0  0  0  0
   23.7597    3.7857   63.1439 C   0  0  0  0  0  0  0  0  0  0  0  0
   26.0344    5.1012   64.2296 C   0  0  0  0  0  0  0  0  0  0  0  0
   24.5463    3.1289   64.1288 C   0  0  0  0  0  0  0  0  0  0  0  0
   27.2897    5.4085   65.0446 C   0  0  0  0  0  0  0  0  0  0  0  0
   25.6754    3.8068   64.6519 C   0  0  0  0  0  0  0  0  0  0  0  0
   27.4682    4.1783   65.8501 C   0  0  0  0  0  0  0  0  0  0  0  0
   28.1283    6.4847   65.0771 C   0  0  0  0  0  0  0  0  0  0  0  0
   26.5193    3.3357   65.5730 N   0  0  0  0  0  0  0  0  0  0  0  0
   28.3829    4.0066   66.6558 O   0  0  0  0  0  0  0  0  0  0  0  0
   29.1799    6.5035   65.8717 N   0  0  0  0  0  0  0  0  0  0  0  0
   28.1368    7.7836   64.3726 C   0  0  0  0  0  0  0  0  0  0  0  0
   29.9114    7.6213   65.7882 C   0  0  0  0  0  0  0  0  0  0  0  0
   27.3612    8.2143   63.5448 O   0  0  0  0  0  0  0  0  0  0  0  0
   29.3482    8.5186   64.8646 C   0  0  0  0  0  0  0  0  0  0  0  0
   31.0988    7.9428   66.4987 C   0  0  0  0  0  0  0  0  0  0  0  0
   29.9331    9.7852   64.5859 C   0  0  0  0  0  0  0  0  0  0  0  0
   31.7053    9.2115   66.2364 C   0  0  0  0  0  0  0  0  0  0  0  0
   31.1276   10.1239   65.2895 C   0  0  0  0  0  0  0  0  0  0  0  0
  1  2  2  0
  1  3  2  0
  1  4  1  0
  1  5  1  0
  5  6  2  0
  5  7  1  0
  6  8  1  0
  7  9  2  0
  8 10  1  0
  8 11  2  0
 10 12  2  0
 10 13  1  0
 11 14  1  0
 12 15  1  0
 13 16  2  0
 13 17  1  0
 16 18  1  0
 17 19  2  0
 17 20  1  0
 18 21  2  0
 20 22  2  0
 21 23  1  0
 22 24  1  0
  9 11  1  0
 12 14  1  0
 18 20  1  0
 23 24  2  0
M  CHG  1   4  -1
M  END
>  <Molecule Name>  (246) 
BYYOTMYLPPUWCF-AAOJIYRFNA-M

>  <hs_clash>  (246) 
0.0

>  <hs_total>  (246) 
13.17101640379152

>  <Total Molweight>  (246) 
341.322

>  <cLogP>  (246) 
-0.9342

>  <H-Acceptors>  (246) 
7

>  <H-Donors>  (246) 
2

>  <Polar Surface Area>  (246) 
131.03

>  <Non-H Atoms>  (246) 
24

>  <sp3-Atoms>  (246) 
3

$$$$
BMWRKSIJFRXVQQ-VMYUEGETNA-M
     RDKit          3D

 17 18  0  0  0  0  0  0  0  0999 V2000
   23.1134    9.9953   57.4759 O   0  0  0  0  0  0  0  0  0  0  0  0
   23.4660    9.5406   58.5916 C   0  0  0  0  0  0  0  0  0  0  0  0
   22.6627    9.3093   59.5352 O   0  0  0  0  0  0  0  0  0  0  0  0
   24.9397    9.1727   58.7567 C   0  0  0  0  0  0  0  0  0  0  0  0
   25.3869    8.8603   60.1576 C   0  0  0  0  0  0  0  0  0  0  0  0
   25.5102    7.5480   60.5827 C   0  0  0  0  0  0  0  0  0  0  0  0
   25.7674    9.8731   61.0278 C   0  0  0  0  0  0  0  0  0  0  0  0
   25.9544    7.2496   61.8639 C   0  0  0  0  0  0  0  0  0  0  0  0
   26.1858    9.5846   62.3091 C   0  0  0  0  0  0  0  0  0  0  0  0
   25.9985    5.9018   62.2490 N   0  0  0  0  0  0  0  0  0  0  0  0
   26.2824    8.2831   62.7344 C   0  0  0  0  0  0  0  0  0  0  0  0
   26.7744    5.2722   63.1864 C   0  0  0  0  0  0  0  0  0  0  0  0
   27.6579    5.9633   63.9199 N   0  0  0  0  0  0  0  0  0  0  0  0
   26.6483    3.8933   63.3255 C   0  0  0  0  0  0  0  0  0  0  0  0
   28.4251    5.2681   64.7702 C   0  0  0  0  0  0  0  0  0  0  0  0
   27.4566    3.2964   64.2327 C   0  0  0  0  0  0  0  0  0  0  0  0
   28.3663    3.9540   64.9789 N   0  0  0  0  0  0  0  0  0  0  0  0
  1  2  2  0
  2  3  1  0
  2  4  1  0
  4  5  1  0
  5  6  2  0
  5  7  1  0
  6  8  1  0
  7  9  2  0
  8 10  1  0
  8 11  2  0
 10 12  1  0
 12 13  2  0
 12 14  1  0
 13 15  1  0
 14 16  2  0
 15 17  2  0
  9 11  1  0
 16 17  1  0
M  CHG  1   3  -1
M  END
>  <Molecule Name>  (247) 
BMWRKSIJFRXVQQ-VMYUEGETNA-M

>  <hs_clash>  (247) 
0.0

>  <hs_total>  (247) 
1.5752145052731628

>  <Total Molweight>  (247) 
228.230

>  <cLogP>  (247) 
-0.6146

>  <H-Acceptors>  (247) 
5

>  <H-Donors>  (247) 
1

>  <Polar Surface Area>  (247) 
77.94

>  <Non-H Atoms>  (247) 
17

>  <sp3-Atoms>  (247) 
2

$$$$
XUELBKVSGYWSKD-DYARMBNPNA-O
     RDKit          3D

 30 33  0  0  0  0  0  0  0  0999 V2000
   24.8143    4.1960   63.3946 Br  0  0  0  0  0  0  0  0  0  0  0  0
   26.4635    4.8766   64.0160 C   0  0  0  0  0  0  0  0  0  0  0  0
   26.8133    6.2105   63.8074 C   0  0  0  0  0  0  0  0  0  0  0  0
   27.2660    3.9645   64.6659 C   0  0  0  0  0  0  0  0  0  0  0  0
   25.8805    7.0250   63.1163 N   0  0  0  0  0  0  0  0  0  0  0  0
   28.0474    6.5625   64.3337 C   0  0  0  0  0  0  0  0  0  0  0  0
   28.4493    4.2949   65.1578 N   0  0  0  0  0  0  0  0  0  0  0  0
   26.2893    8.3821   62.7611 C   0  0  0  0  0  0  0  0  0  0  0  0
   28.7155    7.6725   64.3250 N   0  0  0  0  0  0  0  0  0  0  0  0
   28.8749    5.5208   65.0284 C   0  0  0  0  0  0  0  0  0  0  0  0
   27.1433    8.3369   61.5029 C   0  0  0  0  0  0  0  0  0  0  0  0
   29.8458    7.4386   64.9368 C   0  0  0  0  0  0  0  0  0  0  0  0
   29.9891    6.1341   65.4084 N   0  0  0  0  0  0  0  0  0  0  0  0
   26.4608    7.6089   60.3658 C   0  0  0  0  0  0  0  0  0  0  0  0
   30.9225    8.4651   65.0124 C   0  0  0  0  0  0  0  0  0  0  0  0
   25.3327    8.3651   59.8853 N   0  0  0  0  0  0  0  0  0  0  0  0
   30.9413    9.4213   64.0068 C   0  0  0  0  0  0  0  0  0  0  0  0
   31.9098    8.4515   65.9791 C   0  0  0  0  0  0  0  0  0  0  0  0
   24.0431    8.0425   60.2504 C   0  0  0  0  0  0  0  0  0  0  0  0
   31.9326   10.3764   63.9568 C   0  0  0  0  0  0  0  0  0  0  0  0
   32.9022    9.4107   65.9281 C   0  0  0  0  0  0  0  0  0  0  0  0
   23.7522    7.0508   60.9161 O   0  0  0  0  0  0  0  0  0  0  0  0
   22.9673    8.9772   59.8029 C   0  0  0  0  0  0  0  0  0  0  0  0
   32.9240   10.3649   64.9203 C   0  0  0  0  0  0  0  0  0  0  0  0
   21.9066    9.3008   60.8216 C   0  0  0  0  0  0  0  0  0  0  0  0
   21.5771    8.4033   59.6886 C   0  0  0  0  0  0  0  0  0  0  0  0
   23.2246   10.0665   58.8020 C   0  0  0  0  0  0  0  0  0  0  0  0
   33.9655   11.3067   64.9141 O   0  0  0  0  0  0  0  0  0  0  0  0
   23.4715    9.6105   57.4143 N   0  0  0  0  0  0  0  0  0  0  0  0
   33.7104   12.3983   64.0069 C   0  0  0  0  0  0  0  0  0  0  0  0
  1  2  1  0
  2  3  2  0
  2  4  1  0
  3  5  1  0
  3  6  1  0
  4  7  2  0
  5  8  1  0
  6  9  1  0
  6 10  2  0
  8 11  1  0
  9 12  1  0
 10 13  1  0
 11 14  1  0
 12 15  1  0
 14 16  1  0
 15 17  2  0
 15 18  1  0
 16 19  1  0
 17 20  1  0
 18 21  2  0
 19 22  2  0
 19 23  1  0
 20 24  2  0
 23 25  1  0
 23 26  1  0
 23 27  1  0
 24 28  1  0
 27 29  1  0
 28 30  1  0
  7 10  1  0
 12 13  2  0
 21 24  1  0
 25 26  1  0
M  CHG  1  29   1
M  END
>  <Molecule Name>  (248) 
XUELBKVSGYWSKD-DYARMBNPNA-O

>  <hs_clash>  (248) 
6.0

>  <hs_total>  (248) 
-8.226999941822797

>  <Total Molweight>  (248) 
474.381

>  <cLogP>  (248) 
-1.4149

>  <H-Acceptors>  (248) 
8

>  <H-Donors>  (248) 
4

>  <Polar Surface Area>  (248) 
119.57

>  <Non-H Atoms>  (248) 
30

>  <sp3-Atoms>  (248) 
11

$$$$
RBPYXJCCKORRRN-XWKXFZRBNA-N
     RDKit          3D

 14 16  0  0  0  0  0  0  0  0999 V2000
   29.4508    5.9985   65.4078 N   0  0  0  0  0  0  0  0  0  0  0  0
   29.3397    7.1457   64.7536 C   0  0  0  0  0  0  0  0  0  0  0  0
   28.2902    5.2805   65.0271 C   0  0  0  0  0  0  0  0  0  0  0  0
   30.3265    8.1930   64.7920 N   0  0  0  0  0  0  0  0  0  0  0  0
   28.2029    7.2709   64.0025 N   0  0  0  0  0  0  0  0  0  0  0  0
   27.5030    6.0611   64.1706 C   0  0  0  0  0  0  0  0  0  0  0  0
   27.8864    4.0043   65.3565 C   0  0  0  0  0  0  0  0  0  0  0  0
   31.4569    8.2559   65.6136 C   0  0  0  0  0  0  0  0  0  0  0  0
   30.3324    9.3643   64.0189 C   0  0  0  0  0  0  0  0  0  0  0  0
   26.3198    5.5935   63.6219 C   0  0  0  0  0  0  0  0  0  0  0  0
   26.6881    3.5297   64.8265 C   0  0  0  0  0  0  0  0  0  0  0  0
   32.1572    9.3659   65.4048 N   0  0  0  0  0  0  0  0  0  0  0  0
   31.4485   10.0622   64.4067 C   0  0  0  0  0  0  0  0  0  0  0  0
   25.9160    4.3072   63.9770 C   0  0  0  0  0  0  0  0  0  0  0  0
  1  2  2  0
  1  3  1  0
  2  4  1  0
  2  5  1  0
  3  6  2  0
  3  7  1  0
  4  8  1  0
  4  9  1  0
  6 10  1  0
  7 11  2  0
  8 12  2  0
  9 13  2  0
 10 14  2  0
  5  6  1  0
 11 14  1  0
 12 13  1  0
M  END
>  <Molecule Name>  (249) 
RBPYXJCCKORRRN-XWKXFZRBNA-N

>  <hs_clash>  (249) 
0.0

>  <hs_total>  (249) 
-32.01772473323176

>  <Total Molweight>  (249) 
184.202

>  <cLogP>  (249) 
1.5191

>  <H-Acceptors>  (249) 
4

>  <H-Donors>  (249) 
1

>  <Polar Surface Area>  (249) 
46.5

>  <Non-H Atoms>  (249) 
14

>  <sp3-Atoms>  (249) 
0

$$$$
BNDYIYYKEIXHNK-LVJZVDRKNA-M
     RDKit          3D

 22 24  0  0  0  0  0  0  0  0999 V2000
   31.7028    8.1143   66.3664 O   0  0  0  0  0  0  0  0  0  0  0  0
   30.6819    7.3776   65.7139 C   0  0  0  0  0  0  0  0  0  0  0  0
   32.6871    7.5318   67.2290 C   0  0  0  0  0  0  0  0  0  0  0  0
   29.9561    8.0732   64.5899 C   0  0  0  0  0  0  0  0  0  0  0  0
   30.2812    6.0073   66.0981 C   0  0  0  0  0  0  0  0  0  0  0  0
   30.4109    9.3820   64.2439 O   0  0  0  0  0  0  0  0  0  0  0  0
   28.7862    7.4046   63.9302 C   0  0  0  0  0  0  0  0  0  0  0  0
   29.1337    5.3468   65.4639 C   0  0  0  0  0  0  0  0  0  0  0  0
   29.7494   10.1572   63.2382 C   0  0  0  0  0  0  0  0  0  0  0  0
   28.3182    6.0799   64.3695 C   0  0  0  0  0  0  0  0  0  0  0  0
   28.7440    4.0244   65.8452 N   0  0  0  0  0  0  0  0  0  0  0  0
   27.1148    5.3608   63.8423 C   0  0  0  0  0  0  0  0  0  0  0  0
   27.6561    3.3846   65.2585 C   0  0  0  0  0  0  0  0  0  0  0  0
   26.8747    4.0120   64.3009 N   0  0  0  0  0  0  0  0  0  0  0  0
   26.2273    5.9503   62.9065 N   0  0  0  0  0  0  0  0  0  0  0  0
   25.0643    5.5619   62.2215 C   0  0  0  0  0  0  0  0  0  0  0  0
   24.5020    6.5953   61.3212 C   0  0  0  0  0  0  0  0  0  0  0  0
   24.3477    4.2460   62.3157 C   0  0  0  0  0  0  0  0  0  0  0  0
   23.2655    6.3399   60.5517 C   0  0  0  0  0  0  0  0  0  0  0  0
   23.1535    3.9745   61.4963 C   0  0  0  0  0  0  0  0  0  0  0  0
   22.6994    7.3305   59.7792 O   0  0  0  0  0  0  0  0  0  0  0  0
   22.6173    5.0243   60.6101 C   0  0  0  0  0  0  0  0  0  0  0  0
  1  2  1  0
  1  3  1  0
  2  4  2  0
  2  5  1  0
  4  6  1  0
  4  7  1  0
  5  8  2  0
  6  9  1  0
  7 10  2  0
  8 11  1  0
 10 12  1  0
 11 13  2  0
 12 14  2  0
 12 15  1  0
 15 16  1  0
 16 17  2  0
 16 18  1  0
 17 19  1  0
 18 20  2  0
 19 21  1  0
 19 22  2  0
  8 10  1  0
 13 14  1  0
 20 22  1  0
M  CHG  1  21  -1
M  END
>  <Molecule Name>  (250) 
BNDYIYYKEIXHNK-LVJZVDRKNA-M

>  <hs_clash>  (250) 
8.0

>  <hs_total>  (250) 
-35.665794605590065

>  <Total Molweight>  (250) 
296.305

>  <cLogP>  (250) 
1.2314

>  <H-Acceptors>  (250) 
6

>  <H-Donors>  (250) 
1

>  <Polar Surface Area>  (250) 
79.33

>  <Non-H Atoms>  (250) 
22

>  <sp3-Atoms>  (250) 
5

$$$$
RRHORVAOECWFPT-UHFFFAOYNA-N
     RDKit          3D

 11 12  0  0  0  0  0  0  0  0999 V2000
   24.2890    4.4690   62.7675 N   0  0  0  0  0  0  0  0  0  0  0  0
   25.2300    4.4863   63.4113 C   0  0  0  0  0  0  0  0  0  0  0  0
   26.4013    4.5063   64.2151 C   0  0  0  0  0  0  0  0  0  0  0  0
   27.1928    5.6204   64.5033 C   0  0  0  0  0  0  0  0  0  0  0  0
   26.9603    3.4370   64.8615 C   0  0  0  0  0  0  0  0  0  0  0  0
   27.1362    6.9180   64.1435 N   0  0  0  0  0  0  0  0  0  0  0  0
   28.1830    5.1153   65.3154 N   0  0  0  0  0  0  0  0  0  0  0  0
   28.0511    3.7841   65.5374 N   0  0  0  0  0  0  0  0  0  0  0  0
   28.0972    7.7193   64.6177 C   0  0  0  0  0  0  0  0  0  0  0  0
   29.1441    5.9254   65.7684 C   0  0  0  0  0  0  0  0  0  0  0  0
   29.1139    7.2557   65.4264 C   0  0  0  0  0  0  0  0  0  0  0  0
  1  2  3  0
  2  3  1  0
  3  4  2  0
  3  5  1  0
  4  6  1  0
  4  7  1  0
  5  8  2  0
  6  9  2  0
  7 10  1  0
  9 11  1  0
  7  8  1  0
 10 11  2  0
M  END
>  <Molecule Name>  (251) 
RRHORVAOECWFPT-UHFFFAOYNA-N

>  <hs_clash>  (251) 
0.0

>  <hs_total>  (251) 
nan

>  <Total Molweight>  (251) 
144.137

>  <cLogP>  (251) 
-0.6021

>  <H-Acceptors>  (251) 
4

>  <H-Donors>  (251) 
0

>  <Polar Surface Area>  (251) 
53.98

>  <Non-H Atoms>  (251) 
11

>  <sp3-Atoms>  (251) 
0

$$$$
CMWWYSDXIZEJPA-UHFFFAOYNA-N
     RDKit          3D

 24 27  0  0  0  0  0  0  0  0999 V2000
   25.4660    8.1432   63.1341 S   0  0  0  0  0  0  0  0  0  0  0  0
   25.5736    6.5400   63.6165 C   0  0  0  0  0  0  0  0  0  0  0  0
   24.0412    8.0101   62.2214 C   0  0  0  0  0  0  0  0  0  0  0  0
   26.4979    5.8617   64.3835 C   0  0  0  0  0  0  0  0  0  0  0  0
   24.4795    5.9208   63.0179 C   0  0  0  0  0  0  0  0  0  0  0  0
   23.6756    6.7230   62.2704 N   0  0  0  0  0  0  0  0  0  0  0  0
   23.5376    9.1508   61.6081 C   0  0  0  0  0  0  0  0  0  0  0  0
   27.6632    6.4302   64.7146 N   0  0  0  0  0  0  0  0  0  0  0  0
   26.2015    4.5759   64.7682 C   0  0  0  0  0  0  0  0  0  0  0  0
   24.2198    4.4276   63.1947 C   0  0  0  0  0  0  0  0  0  0  0  0
   28.5385    5.7561   65.4487 C   0  0  0  0  0  0  0  0  0  0  0  0
   27.1361    3.8755   65.5154 C   0  0  0  0  0  0  0  0  0  0  0  0
   24.8944    3.8735   64.4356 C   0  0  0  0  0  0  0  0  0  0  0  0
   28.2571    4.4935   65.8144 N   0  0  0  0  0  0  0  0  0  0  0  0
   29.7273    6.2398   65.8032 N   0  0  0  0  0  0  0  0  0  0  0  0
   30.1356    7.4966   65.8812 C   0  0  0  0  0  0  0  0  0  0  0  0
   29.9950    8.3687   64.8245 C   0  0  0  0  0  0  0  0  0  0  0  0
   30.8462    7.9132   67.0040 C   0  0  0  0  0  0  0  0  0  0  0  0
   30.4910    9.6687   64.9322 C   0  0  0  0  0  0  0  0  0  0  0  0
   31.3589    9.2032   67.1249 C   0  0  0  0  0  0  0  0  0  0  0  0
   30.3468   10.5242   63.9138 N   0  0  0  0  0  0  0  0  0  0  0  0
   31.1781   10.0854   66.0710 C   0  0  0  0  0  0  0  0  0  0  0  0
   31.3726   11.5454   63.6992 O   0  0  0  0  0  0  0  0  0  0  0  0
   29.2119   10.4296   63.0127 O   0  0  0  0  0  0  0  0  0  0  0  0
  1  2  1  0
  1  3  1  0
  2  4  1  0
  2  5  2  0
  3  6  2  0
  3  7  1  0
  4  8  2  0
  4  9  1  0
  5 10  1  0
  8 11  1  0
  9 12  2  0
  9 13  1  0
 11 14  2  0
 11 15  1  0
 15 16  2  0
 16 17  1  0
 16 18  1  0
 17 19  2  0
 18 20  1  0
 19 21  1  0
 19 22  1  0
 21 23  2  0
 21 24  1  0
  5  6  1  0
 10 13  1  0
 12 14  1  0
 20 22  2  0
M  CHG  2  21   1  24  -1
M  END
>  <Molecule Name>  (252) 
CMWWYSDXIZEJPA-UHFFFAOYNA-N

>  <hs_clash>  (252) 
0.0

>  <hs_total>  (252) 
nan

>  <Total Molweight>  (252) 
339.378

>  <cLogP>  (252) 
1.6248

>  <H-Acceptors>  (252) 
7

>  <H-Donors>  (252) 
0

>  <Polar Surface Area>  (252) 
125.09

>  <Non-H Atoms>  (252) 
24

>  <sp3-Atoms>  (252) 
5

$$$$
CMWWYSDXIZEJPA-ODLFYWEKNA-N
     RDKit          3D

 24 27  0  0  0  0  0  0  0  0999 V2000
   25.1242    7.5272   63.1780 S   0  0  0  0  0  0  0  0  0  0  0  0
   25.3915    5.9506   63.6999 C   0  0  0  0  0  0  0  0  0  0  0  0
   23.7490    7.2370   62.2216 C   0  0  0  0  0  0  0  0  0  0  0  0
   26.3598    5.3535   64.5012 C   0  0  0  0  0  0  0  0  0  0  0  0
   24.3722    5.2204   63.0912 C   0  0  0  0  0  0  0  0  0  0  0  0
   23.5404    5.9260   62.3114 N   0  0  0  0  0  0  0  0  0  0  0  0
   23.0775    8.2458   61.5252 C   0  0  0  0  0  0  0  0  0  0  0  0
   27.4415    6.0224   64.8975 N   0  0  0  0  0  0  0  0  0  0  0  0
   26.1737    4.0277   64.8463 C   0  0  0  0  0  0  0  0  0  0  0  0
   24.2292    3.7084   63.2359 C   0  0  0  0  0  0  0  0  0  0  0  0
   28.3414    5.4211   65.6666 C   0  0  0  0  0  0  0  0  0  0  0  0
   27.1365    3.4049   65.6304 C   0  0  0  0  0  0  0  0  0  0  0  0
   24.9499    3.1989   64.4712 C   0  0  0  0  0  0  0  0  0  0  0  0
   28.1585    4.1425   66.0112 N   0  0  0  0  0  0  0  0  0  0  0  0
   29.4760    5.9741   66.0763 N   0  0  0  0  0  0  0  0  0  0  0  0
   29.9362    7.2014   65.7689 C   0  0  0  0  0  0  0  0  0  0  0  0
   29.4407    7.9534   64.7078 C   0  0  0  0  0  0  0  0  0  0  0  0
   30.9488    7.7528   66.5762 C   0  0  0  0  0  0  0  0  0  0  0  0
   29.9661    9.2217   64.4916 C   0  0  0  0  0  0  0  0  0  0  0  0
   31.4742    9.0219   66.3702 C   0  0  0  0  0  0  0  0  0  0  0  0
   29.4646    9.9562   63.4996 N   0  0  0  0  0  0  0  0  0  0  0  0
   30.9722    9.7553   65.3050 C   0  0  0  0  0  0  0  0  0  0  0  0
   29.8401   11.3574   63.3704 O   0  0  0  0  0  0  0  0  0  0  0  0
   28.5312    9.3844   62.5638 O   0  0  0  0  0  0  0  0  0  0  0  0
  1  2  1  0
  1  3  1  0
  2  4  1  0
  2  5  2  0
  3  6  2  0
  3  7  1  0
  4  8  2  0
  4  9  1  0
  5 10  1  0
  8 11  1  0
  9 12  2  0
  9 13  1  0
 11 14  2  0
 11 15  1  0
 15 16  2  0
 16 17  1  0
 16 18  1  0
 17 19  2  0
 18 20  1  0
 19 21  1  0
 19 22  1  0
 21 23  2  0
 21 24  1  0
  5  6  1  0
 10 13  1  0
 12 14  1  0
 20 22  2  0
M  CHG  2  21   1  24  -1
M  END
>  <Molecule Name>  (253) 
CMWWYSDXIZEJPA-ODLFYWEKNA-N

>  <hs_clash>  (253) 
0.0

>  <hs_total>  (253) 
nan

>  <Total Molweight>  (253) 
339.378

>  <cLogP>  (253) 
1.6248

>  <H-Acceptors>  (253) 
7

>  <H-Donors>  (253) 
0

>  <Polar Surface Area>  (253) 
125.09

>  <Non-H Atoms>  (253) 
24

>  <sp3-Atoms>  (253) 
5

$$$$
NKUOWCWVEBHJCR-UHFFFAOYNA-N
     RDKit          3D

 25 28  0  0  0  0  0  0  0  0999 V2000
   27.5031    7.2955   60.6093 Cl  0  0  0  0  0  0  0  0  0  0  0  0
   26.8225    8.6701   61.4075 C   0  0  0  0  0  0  0  0  0  0  0  0
   26.9073    8.8518   62.8289 C   0  0  0  0  0  0  0  0  0  0  0  0
   26.1561    9.6442   60.6088 C   0  0  0  0  0  0  0  0  0  0  0  0
   27.6214    7.8313   63.7164 C   0  0  0  0  0  0  0  0  0  0  0  0
   26.3117   10.0154   63.4399 C   0  0  0  0  0  0  0  0  0  0  0  0
   25.5755   10.7911   61.2179 C   0  0  0  0  0  0  0  0  0  0  0  0
   26.9234    6.7209   63.7668 N   0  0  0  0  0  0  0  0  0  0  0  0
   28.9788    8.2163   64.3705 C   0  0  0  0  0  0  0  0  0  0  0  0
   25.6513   10.9757   62.6253 C   0  0  0  0  0  0  0  0  0  0  0  0
   27.2778    5.5648   64.4689 C   0  0  0  0  0  0  0  0  0  0  0  0
   29.7115    7.3744   65.2856 C   0  0  0  0  0  0  0  0  0  0  0  0
   29.5572    9.5102   64.0458 C   0  0  0  0  0  0  0  0  0  0  0  0
   28.3345    5.2580   65.3466 C   0  0  0  0  0  0  0  0  0  0  0  0
   26.5220    4.4197   64.3682 C   0  0  0  0  0  0  0  0  0  0  0  0
   29.3258    6.0913   65.7325 N   0  0  0  0  0  0  0  0  0  0  0  0
   30.9726    7.8574   65.8207 C   0  0  0  0  0  0  0  0  0  0  0  0
   30.7930    9.9632   64.5874 C   0  0  0  0  0  0  0  0  0  0  0  0
   28.2520    3.9927   65.7758 N   0  0  0  0  0  0  0  0  0  0  0  0
   27.1536    3.5140   65.1704 N   0  0  0  0  0  0  0  0  0  0  0  0
   25.2959    4.0989   63.6065 C   0  0  0  0  0  0  0  0  0  0  0  0
   31.5120    9.1308   65.4835 C   0  0  0  0  0  0  0  0  0  0  0  0
   31.3072   11.3100   64.2137 N   0  0  0  0  0  0  0  0  0  0  0  0
   32.3709   11.7023   64.7298 O   0  0  0  0  0  0  0  0  0  0  0  0
   30.6362   11.9912   63.4193 O   0  0  0  0  0  0  0  0  0  0  0  0
  1  2  1  0
  2  3  2  0
  2  4  1  0
  3  5  1  0
  3  6  1  0
  4  7  2  0
  5  8  2  0
  5  9  1  0
  6 10  2  0
  8 11  1  0
  9 12  2  0
  9 13  1  0
 11 14  1  0
 11 15  2  0
 12 16  1  0
 12 17  1  0
 13 18  2  0
 14 19  1  0
 15 20  1  0
 15 21  1  0
 17 22  2  0
 18 23  1  0
 23 24  2  0
 23 25  1  0
  7 10  1  0
 14 16  2  0
 18 22  1  0
 19 20  2  0
M  CHG  2  23   1  25  -1
M  END
>  <Molecule Name>  (254) 
NKUOWCWVEBHJCR-UHFFFAOYNA-N

>  <hs_clash>  (254) 
0.0

>  <hs_total>  (254) 
nan

>  <Total Molweight>  (254) 
351.752

>  <cLogP>  (254) 
2.4969

>  <H-Acceptors>  (254) 
7

>  <H-Donors>  (254) 
0

>  <Polar Surface Area>  (254) 
95.26

>  <Non-H Atoms>  (254) 
25

>  <sp3-Atoms>  (254) 
2

$$$$
BXTMIVXDDUNPOP-UHFFFAOYNA-N
     RDKit          3D

 18 19  0  0  0  0  0  0  0  0999 V2000
   29.6499    3.7985   65.9291 O   0  0  0  0  0  0  0  0  0  0  0  0
   29.2418    4.8846   65.4826 C   0  0  0  0  0  0  0  0  0  0  0  0
   30.0479    6.0681   65.6990 O   0  0  0  0  0  0  0  0  0  0  0  0
   28.0005    4.9302   64.6671 C   0  0  0  0  0  0  0  0  0  0  0  0
   31.3386    5.5276   66.1581 C   0  0  0  0  0  0  0  0  0  0  0  0
   27.6851    6.1477   64.0019 C   0  0  0  0  0  0  0  0  0  0  0  0
   27.2173    3.7308   64.5296 C   0  0  0  0  0  0  0  0  0  0  0  0
   26.5407    6.1856   63.1992 C   0  0  0  0  0  0  0  0  0  0  0  0
   26.0762    3.7967   63.7335 C   0  0  0  0  0  0  0  0  0  0  0  0
   25.7121    4.9601   63.0539 C   0  0  0  0  0  0  0  0  0  0  0  0
   26.1454    7.4181   62.4048 C   0  0  0  0  0  0  0  0  0  0  0  0
   24.5115    5.1683   62.3205 N   0  0  0  0  0  0  0  0  0  0  0  0
   25.8558    6.8224   61.0150 C   0  0  0  0  0  0  0  0  0  0  0  0
   23.2991    4.7828   62.9043 C   0  0  0  0  0  0  0  0  0  0  0  0
   24.5427    6.0326   61.0763 C   0  0  0  0  0  0  0  0  0  0  0  0
   22.2790    4.8423   62.2201 O   0  0  0  0  0  0  0  0  0  0  0  0
   23.0802    4.2838   64.3612 C   0  0  0  0  0  0  0  0  0  0  0  0
   21.9797    3.1801   64.4154 C   0  0  0  0  0  0  0  0  0  0  0  0
  1  2  2  0
  2  3  1  0
  2  4  1  0
  3  5  1  0
  4  6  2  0
  4  7  1  0
  6  8  1  0
  7  9  2  0
  8 10  2  0
  8 11  1  0
 10 12  1  0
 11 13  1  0
 12 14  1  0
 12 15  1  0
 14 16  2  0
 14 17  1  0
 17 18  1  0
  9 10  1  0
 13 15  1  0
M  END
>  <Molecule Name>  (255) 
BXTMIVXDDUNPOP-UHFFFAOYNA-N

>  <hs_clash>  (255) 
17.0

>  <hs_total>  (255) 
nan

>  <Total Molweight>  (255) 
247.293

>  <cLogP>  (255) 
2.4595

>  <H-Acceptors>  (255) 
4

>  <H-Donors>  (255) 
0

>  <Polar Surface Area>  (255) 
46.61

>  <Non-H Atoms>  (255) 
18

>  <sp3-Atoms>  (255) 
7

$$$$
YOVNJNUSCDKCER-UHFFFAOYNA-N
     RDKit          3D

 22 24  0  0  0  0  0  0  0  0999 V2000
   29.0547    3.9488   65.5124 O   0  0  0  0  0  0  0  0  0  0  0  0
   28.6007    4.9127   64.9016 C   0  0  0  0  0  0  0  0  0  0  0  0
   29.3103    6.1788   64.9250 O   0  0  0  0  0  0  0  0  0  0  0  0
   27.3103    4.8180   64.1509 C   0  0  0  0  0  0  0  0  0  0  0  0
   30.4673    6.3135   65.7318 C   0  0  0  0  0  0  0  0  0  0  0  0
   26.8925    5.8981   63.3776 C   0  0  0  0  0  0  0  0  0  0  0  0
   26.5585    3.6495   64.2180 C   0  0  0  0  0  0  0  0  0  0  0  0
   25.6961    5.8192   62.6973 C   0  0  0  0  0  0  0  0  0  0  0  0
   25.3528    3.5264   63.5459 C   0  0  0  0  0  0  0  0  0  0  0  0
   25.2656    6.8719   61.8762 N   0  0  0  0  0  0  0  0  0  0  0  0
   24.8824    4.5906   62.7719 C   0  0  0  0  0  0  0  0  0  0  0  0
   24.0035    6.7460   61.1434 C   0  0  0  0  0  0  0  0  0  0  0  0
   26.1607    8.0179   61.6984 C   0  0  0  0  0  0  0  0  0  0  0  0
   23.6770    4.6275   62.0485 N   0  0  0  0  0  0  0  0  0  0  0  0
   23.8026    5.2754   60.7543 C   0  0  0  0  0  0  0  0  0  0  0  0
   25.4340    9.0921   60.8992 C   0  0  0  0  0  0  0  0  0  0  0  0
   22.4970    4.2438   62.5726 C   0  0  0  0  0  0  0  0  0  0  0  0
   26.3519   10.2913   60.6872 C   0  0  0  0  0  0  0  0  0  0  0  0
   26.1484    9.2823   59.5675 C   0  0  0  0  0  0  0  0  0  0  0  0
   21.4950    4.0929   61.9130 O   0  0  0  0  0  0  0  0  0  0  0  0
   22.3297    4.0148   64.0589 C   0  0  0  0  0  0  0  0  0  0  0  0
   21.8851    2.5831   64.2812 C   0  0  0  0  0  0  0  0  0  0  0  0
  1  2  2  0
  2  3  1  0
  2  4  1  0
  3  5  1  0
  4  6  2  0
  4  7  1  0
  6  8  1  0
  7  9  2  0
  8 10  1  0
  8 11  2  0
 10 12  1  0
 10 13  1  0
 11 14  1  0
 12 15  1  0
 13 16  1  0
 14 17  1  0
 16 18  1  0
 16 19  1  0
 17 20  2  0
 17 21  1  0
 21 22  1  0
  9 11  1  0
 14 15  1  0
 18 19  1  0
M  END
>  <Molecule Name>  (256) 
YOVNJNUSCDKCER-UHFFFAOYNA-N

>  <hs_clash>  (256) 
31.0

>  <hs_total>  (256) 
nan

>  <Total Molweight>  (256) 
302.373

>  <cLogP>  (256) 
2.4029

>  <H-Acceptors>  (256) 
5

>  <H-Donors>  (256) 
0

>  <Polar Surface Area>  (256) 
49.85

>  <Non-H Atoms>  (256) 
22

>  <sp3-Atoms>  (256) 
11

$$$$
FWEOQOXTVHGIFQ-FZMAWFKONA-M
     RDKit          3D

 21 23  0  0  0  0  0  0  0  0999 V2000
   20.8422    2.8167   59.4437 S   0  0  0  0  0  0  0  0  0  0  0  0
   20.0277    3.5627   60.3882 O   0  0  0  0  0  0  0  0  0  0  0  0
   20.5364    3.2423   58.0716 O   0  0  0  0  0  0  0  0  0  0  0  0
   22.4034    3.0900   59.7317 O   0  0  0  0  0  0  0  0  0  0  0  0
   20.5638    1.0603   59.5645 C   0  0  0  0  0  0  0  0  0  0  0  0
   19.2365    0.4250   59.5968 C   0  0  0  0  0  0  0  0  0  0  0  0
   21.7525    0.2672   59.6325 C   0  0  0  0  0  0  0  0  0  0  0  0
   17.9238    1.1014   59.5279 C   0  0  0  0  0  0  0  0  0  0  0  0
   19.2345   -1.1067   59.7116 C   0  0  0  0  0  0  0  0  0  0  0  0
   21.7245   -1.1378   59.7310 C   0  0  0  0  0  0  0  0  0  0  0  0
   17.8349    2.4333   59.4159 N   0  0  0  0  0  0  0  0  0  0  0  0
   16.7308    0.2933   59.5792 C   0  0  0  0  0  0  0  0  0  0  0  0
   20.4984   -1.8257   59.7737 C   0  0  0  0  0  0  0  0  0  0  0  0
   17.9975   -1.8045   59.7523 C   0  0  0  0  0  0  0  0  0  0  0  0
   16.7343    3.1396   59.1610 C   0  0  0  0  0  0  0  0  0  0  0  0
   16.7779   -1.1046   59.6880 C   0  0  0  0  0  0  0  0  0  0  0  0
   16.3176    4.1379   60.0889 C   0  0  0  0  0  0  0  0  0  0  0  0
   15.9461    2.9412   57.9686 C   0  0  0  0  0  0  0  0  0  0  0  0
   15.1487    4.9198   59.8468 C   0  0  0  0  0  0  0  0  0  0  0  0
   14.7791    3.7267   57.7350 C   0  0  0  0  0  0  0  0  0  0  0  0
   14.3810    4.7133   58.6704 C   0  0  0  0  0  0  0  0  0  0  0  0
  1  2  2  0
  1  3  2  0
  1  4  1  0
  1  5  1  0
  5  6  2  0
  5  7  1  0
  6  8  1  0
  6  9  1  0
  7 10  2  0
  8 11  1  0
  8 12  2  0
  9 13  2  0
  9 14  1  0
 11 15  1  0
 12 16  1  0
 15 17  2  0
 15 18  1  0
 17 19  1  0
 18 20  2  0
 19 21  2  0
 10 13  1  0
 14 16  2  0
 20 21  1  0
M  CHG  1   4  -1
M  END
>  <Molecule Name>  (257) 
FWEOQOXTVHGIFQ-FZMAWFKONA-M

>  <hs_clash>  (257) 
10.0

>  <hs_total>  (257) 
nan

>  <Total Molweight>  (257) 
298.341

>  <cLogP>  (257) 
0.9075

>  <H-Acceptors>  (257) 
4

>  <H-Donors>  (257) 
1

>  <Polar Surface Area>  (257) 
77.61

>  <Non-H Atoms>  (257) 
21

>  <sp3-Atoms>  (257) 
2

$$$$
QDHABPUVVIONNJ-UHFFFAOYNA-N
     RDKit          3D

 20 21  0  0  0  0  0  0  0  0999 V2000
   28.7697    4.0881   65.4264 O   0  0  0  0  0  0  0  0  0  0  0  0
   28.3165    5.0367   64.8132 C   0  0  0  0  0  0  0  0  0  0  0  0
   28.9949    6.3131   64.8116 O   0  0  0  0  0  0  0  0  0  0  0  0
   27.0211    4.9047   64.1003 C   0  0  0  0  0  0  0  0  0  0  0  0
   30.2242    6.4778   65.5030 C   0  0  0  0  0  0  0  0  0  0  0  0
   26.5480    5.9688   63.3338 C   0  0  0  0  0  0  0  0  0  0  0  0
   26.3410    3.6999   64.2107 C   0  0  0  0  0  0  0  0  0  0  0  0
   25.3336    5.8415   62.6769 C   0  0  0  0  0  0  0  0  0  0  0  0
   25.1224    3.5294   63.5624 C   0  0  0  0  0  0  0  0  0  0  0  0
   24.7949    6.8563   61.8742 N   0  0  0  0  0  0  0  0  0  0  0  0
   24.5861    4.5709   62.8189 C   0  0  0  0  0  0  0  0  0  0  0  0
   23.4573    6.6894   61.3040 C   0  0  0  0  0  0  0  0  0  0  0  0
   25.5818    8.0176   61.4757 C   0  0  0  0  0  0  0  0  0  0  0  0
   23.3565    4.5233   62.1553 N   0  0  0  0  0  0  0  0  0  0  0  0
   23.3827    5.2178   60.8855 C   0  0  0  0  0  0  0  0  0  0  0  0
   25.6052    9.0935   62.5351 C   0  0  0  0  0  0  0  0  0  0  0  0
   22.2335    4.0360   62.7331 C   0  0  0  0  0  0  0  0  0  0  0  0
   21.3048    3.6017   62.0702 O   0  0  0  0  0  0  0  0  0  0  0  0
   22.0480    4.0655   64.2485 C   0  0  0  0  0  0  0  0  0  0  0  0
   21.4878    2.7407   64.7140 C   0  0  0  0  0  0  0  0  0  0  0  0
  1  2  2  0
  2  3  1  0
  2  4  1  0
  3  5  1  0
  4  6  2  0
  4  7  1  0
  6  8  1  0
  7  9  2  0
  8 10  1  0
  8 11  2  0
 10 12  1  0
 10 13  1  0
 11 14  1  0
 12 15  1  0
 13 16  1  0
 14 17  1  0
 17 18  2  0
 17 19  1  0
 19 20  1  0
  9 11  1  0
 14 15  1  0
M  END
>  <Molecule Name>  (258) 
QDHABPUVVIONNJ-UHFFFAOYNA-N

>  <hs_clash>  (258) 
28.0

>  <hs_total>  (258) 
nan

>  <Total Molweight>  (258) 
276.335

>  <cLogP>  (258) 
2.0848

>  <H-Acceptors>  (258) 
5

>  <H-Donors>  (258) 
0

>  <Polar Surface Area>  (258) 
49.85

>  <Non-H Atoms>  (258) 
20

>  <sp3-Atoms>  (258) 
9

$$$$
BBYDXOIZLAWGSL-YVTRMFSTNA-M
     RDKit          3D

 10 10  0  0  0  0  0  0  0  0999 V2000
   27.8636    4.7057   65.6511 F   0  0  0  0  0  0  0  0  0  0  0  0
   26.9457    4.7688   64.6506 C   0  0  0  0  0  0  0  0  0  0  0  0
   26.7545    5.9599   64.0064 C   0  0  0  0  0  0  0  0  0  0  0  0
   26.2419    3.6456   64.3361 C   0  0  0  0  0  0  0  0  0  0  0  0
   25.8105    6.0272   62.9954 C   0  0  0  0  0  0  0  0  0  0  0  0
   25.2979    3.7020   63.3314 C   0  0  0  0  0  0  0  0  0  0  0  0
   25.0731    4.8957   62.6505 C   0  0  0  0  0  0  0  0  0  0  0  0
   24.0360    4.9500   61.5531 C   0  0  0  0  0  0  0  0  0  0  0  0
   23.4501    6.0430   61.3677 O   0  0  0  0  0  0  0  0  0  0  0  0
   23.8178    3.8994   60.8899 O   0  0  0  0  0  0  0  0  0  0  0  0
  1  2  1  0
  2  3  2  0
  2  4  1  0
  3  5  1  0
  4  6  2  0
  5  7  2  0
  7  8  1  0
  8  9  2  0
  8 10  1  0
  6  7  1  0
M  CHG  1  10  -1
M  END
>  <Molecule Name>  (259) 
BBYDXOIZLAWGSL-YVTRMFSTNA-M

>  <hs_clash>  (259) 
0.0

>  <hs_total>  (259) 
nan

>  <Total Molweight>  (259) 
139.105

>  <cLogP>  (259) 
-0.8305

>  <H-Acceptors>  (259) 
2

>  <H-Donors>  (259) 
0

>  <Polar Surface Area>  (259) 
40.13

>  <Non-H Atoms>  (259) 
10

>  <sp3-Atoms>  (259) 
1

$$$$
GRVSGGNZRNHMQI-UHFFFAOYNA-N
     RDKit          3D

  8  8  0  0  0  0  0  0  0  0999 V2000
   27.5793    8.6826   62.9035 I   0  0  0  0  0  0  0  0  0  0  0  0
   28.8258    7.4589   64.0400 C   0  0  0  0  0  0  0  0  0  0  0  0
   30.0697    7.9153   64.4801 C   0  0  0  0  0  0  0  0  0  0  0  0
   28.3820    6.2100   64.4017 C   0  0  0  0  0  0  0  0  0  0  0  0
   30.8752    7.0745   65.1714 C   0  0  0  0  0  0  0  0  0  0  0  0
   29.2340    5.3361   65.1226 C   0  0  0  0  0  0  0  0  0  0  0  0
   30.4435    5.8385   65.5163 N   0  0  0  0  0  0  0  0  0  0  0  0
   28.9633    4.2032   65.3934 O   0  0  0  0  0  0  0  0  0  0  0  0
  1  2  1  0
  2  3  2  0
  2  4  1  0
  3  5  1  0
  4  6  1  0
  5  7  2  0
  6  8  2  0
  6  7  1  0
M  END
>  <Molecule Name>  (260) 
GRVSGGNZRNHMQI-UHFFFAOYNA-N

>  <hs_clash>  (260) 
0.0

>  <hs_total>  (260) 
nan

>  <Total Molweight>  (260) 
220.993

>  <cLogP>  (260) 
0.8216

>  <H-Acceptors>  (260) 
2

>  <H-Donors>  (260) 
0

>  <Polar Surface Area>  (260) 
29.43

>  <Non-H Atoms>  (260) 
8

>  <sp3-Atoms>  (260) 
1

$$$$
RNRCAQYXOAHKGD-LNBSGDTFNA-M
     RDKit          3D

 13 13  0  0  0  0  0  0  0  0999 V2000
   26.4871    7.0222   64.2612 Br  0  0  0  0  0  0  0  0  0  0  0  0
   26.3148    8.0227   62.7059 C   0  0  0  0  0  0  0  0  0  0  0  0
   26.0277    9.3880   62.7664 C   0  0  0  0  0  0  0  0  0  0  0  0
   26.4893    7.4155   61.4784 C   0  0  0  0  0  0  0  0  0  0  0  0
   26.0184   10.1387   61.6139 C   0  0  0  0  0  0  0  0  0  0  0  0
   26.4258    8.1527   60.3175 C   0  0  0  0  0  0  0  0  0  0  0  0
   25.7507   11.4666   61.5673 O   0  0  0  0  0  0  0  0  0  0  0  0
   26.2233    9.5171   60.3451 C   0  0  0  0  0  0  0  0  0  0  0  0
   25.6476   12.1524   62.7982 C   0  0  0  0  0  0  0  0  0  0  0  0
   26.2225   10.3296   59.0973 C   0  0  0  0  0  0  0  0  0  0  0  0
   24.9077   10.6133   58.4202 C   0  0  0  0  0  0  0  0  0  0  0  0
   23.8859   10.0243   58.8137 O   0  0  0  0  0  0  0  0  0  0  0  0
   24.9329   11.4071   57.4625 O   0  0  0  0  0  0  0  0  0  0  0  0
  1  2  1  0
  2  3  2  0
  2  4  1  0
  3  5  1  0
  4  6  2  0
  5  7  1  0
  5  8  2  0
  7  9  1  0
  8 10  1  0
 10 11  1  0
 11 12  2  0
 11 13  1  0
  6  8  1  0
M  CHG  1  13  -1
M  END
>  <Molecule Name>  (261) 
RNRCAQYXOAHKGD-LNBSGDTFNA-M

>  <hs_clash>  (261) 
0.0

>  <hs_total>  (261) 
nan

>  <Total Molweight>  (261) 
244.064

>  <cLogP>  (261) 
-0.278

>  <H-Acceptors>  (261) 
3

>  <H-Donors>  (261) 
0

>  <Polar Surface Area>  (261) 
49.36

>  <Non-H Atoms>  (261) 
13

>  <sp3-Atoms>  (261) 
4

$$$$
WRCYZEFOPRPDCR-DEUOUXLMNA-M
     RDKit          3D

 18 19  0  0  0  0  0  0  0  0999 V2000
   28.1794    4.3578   65.7537 O   0  0  0  0  0  0  0  0  0  0  0  0
   28.1690    5.4084   65.1042 C   0  0  0  0  0  0  0  0  0  0  0  0
   29.3161    6.1434   65.0372 N   0  0  0  0  0  0  0  0  0  0  0  0
   27.0283    5.9834   64.5191 C   0  0  0  0  0  0  0  0  0  0  0  0
   29.4148    7.3042   64.3555 C   0  0  0  0  0  0  0  0  0  0  0  0
   27.1428    7.1327   63.7875 C   0  0  0  0  0  0  0  0  0  0  0  0
   28.3394    7.8169   63.7116 C   0  0  0  0  0  0  0  0  0  0  0  0
   25.9840    7.6143   63.2534 O   0  0  0  0  0  0  0  0  0  0  0  0
   26.0521    8.4016   62.1101 C   0  0  0  0  0  0  0  0  0  0  0  0
   26.2747    7.8356   60.8962 C   0  0  0  0  0  0  0  0  0  0  0  0
   25.7367    9.7254   62.2388 C   0  0  0  0  0  0  0  0  0  0  0  0
   26.3007    8.6405   59.7849 C   0  0  0  0  0  0  0  0  0  0  0  0
   25.7039   10.5134   61.1122 C   0  0  0  0  0  0  0  0  0  0  0  0
   25.9196    9.9666   59.8687 C   0  0  0  0  0  0  0  0  0  0  0  0
   25.8865   10.8186   58.6344 C   0  0  0  0  0  0  0  0  0  0  0  0
   24.6048   10.7547   57.8283 C   0  0  0  0  0  0  0  0  0  0  0  0
   24.5189   11.4986   56.8534 O   0  0  0  0  0  0  0  0  0  0  0  0
   23.6649   10.0161   58.1983 O   0  0  0  0  0  0  0  0  0  0  0  0
  1  2  2  0
  2  3  1  0
  2  4  1  0
  3  5  2  0
  4  6  1  0
  5  7  1  0
  6  8  1  0
  8  9  1  0
  9 10  2  0
  9 11  1  0
 10 12  1  0
 11 13  2  0
 12 14  2  0
 14 15  1  0
 15 16  1  0
 16 17  2  0
 16 18  1  0
  6  7  2  0
 13 14  1  0
M  CHG  1  18  -1
M  END
>  <Molecule Name>  (262) 
WRCYZEFOPRPDCR-DEUOUXLMNA-M

>  <hs_clash>  (262) 
0.0

>  <hs_total>  (262) 
nan

>  <Total Molweight>  (262) 
244.225

>  <cLogP>  (262) 
-1.1873

>  <H-Acceptors>  (262) 
5

>  <H-Donors>  (262) 
0

>  <Polar Surface Area>  (262) 
78.79

>  <Non-H Atoms>  (262) 
18

>  <sp3-Atoms>  (262) 
4

$$$$
QYXNSNJTMIEAPG-UHFFFAOYNA-N
     RDKit          3D

 11 12  0  0  0  0  0  0  0  0999 V2000
   28.7097    5.2345   65.6603 Br  0  0  0  0  0  0  0  0  0  0  0  0
   27.8303    6.3230   64.3784 C   0  0  0  0  0  0  0  0  0  0  0  0
   26.8668    5.7227   63.5593 C   0  0  0  0  0  0  0  0  0  0  0  0
   28.1389    7.6189   64.2223 C   0  0  0  0  0  0  0  0  0  0  0  0
   26.2466    6.5347   62.5665 C   0  0  0  0  0  0  0  0  0  0  0  0
   26.4907    4.3599   63.6593 C   0  0  0  0  0  0  0  0  0  0  0  0
   27.4756    8.3614   63.2280 C   0  0  0  0  0  0  0  0  0  0  0  0
   26.5584    7.8535   62.4183 N   0  0  0  0  0  0  0  0  0  0  0  0
   25.3142    6.0238   61.7269 N   0  0  0  0  0  0  0  0  0  0  0  0
   25.5498    3.8761   62.8236 C   0  0  0  0  0  0  0  0  0  0  0  0
   25.0025    4.7472   61.8692 C   0  0  0  0  0  0  0  0  0  0  0  0
  1  2  1  0
  2  3  2  0
  2  4  1  0
  3  5  1  0
  3  6  1  0
  4  7  2  0
  5  8  2  0
  5  9  1  0
  6 10  2  0
  9 11  2  0
  7  8  1  0
 10 11  1  0
M  END
>  <Molecule Name>  (263) 
QYXNSNJTMIEAPG-UHFFFAOYNA-N

>  <hs_clash>  (263) 
0.0

>  <hs_total>  (263) 
nan

>  <Total Molweight>  (263) 
209.046

>  <cLogP>  (263) 
1.9828

>  <H-Acceptors>  (263) 
2

>  <H-Donors>  (263) 
0

>  <Polar Surface Area>  (263) 
25.78

>  <Non-H Atoms>  (263) 
11

>  <sp3-Atoms>  (263) 
0

$$$$
VDEKFYBSRAMPIS-UHFFFAOYNA-N
     RDKit          3D

 16 17  0  0  0  0  0  0  0  0999 V2000
   22.7926    4.8545   62.5115 O   0  0  0  0  0  0  0  0  0  0  0  0
   23.7021    4.7151   63.3158 C   0  0  0  0  0  0  0  0  0  0  0  0
   24.9621    4.9707   62.9249 N   0  0  0  0  0  0  0  0  0  0  0  0
   23.3093    4.2544   64.7017 C   0  0  0  0  0  0  0  0  0  0  0  0
   26.0667    4.8172   63.7713 C   0  0  0  0  0  0  0  0  0  0  0  0
   25.2052    5.6795   61.6629 C   0  0  0  0  0  0  0  0  0  0  0  0
   22.2045    3.1831   64.6592 C   0  0  0  0  0  0  0  0  0  0  0  0
   26.8661    6.0548   63.8901 C   0  0  0  0  0  0  0  0  0  0  0  0
   26.5178    3.6721   64.4309 C   0  0  0  0  0  0  0  0  0  0  0  0
   25.3292    7.1253   62.1149 C   0  0  0  0  0  0  0  0  0  0  0  0
   26.3993    7.1894   63.1750 N   0  0  0  0  0  0  0  0  0  0  0  0
   27.9963    6.1150   64.7091 C   0  0  0  0  0  0  0  0  0  0  0  0
   27.6817    3.7837   65.2201 C   0  0  0  0  0  0  0  0  0  0  0  0
   26.9417    8.4792   63.5762 C   0  0  0  0  0  0  0  0  0  0  0  0
   28.4340    4.9799   65.4079 C   0  0  0  0  0  0  0  0  0  0  0  0
   28.1794    8.7568   62.7512 C   0  0  0  0  0  0  0  0  0  0  0  0
  1  2  2  0
  2  3  1  0
  2  4  1  0
  3  5  1  0
  3  6  1  0
  4  7  1  0
  5  8  2  0
  5  9  1  0
  6 10  1  0
  8 11  1  0
  8 12  1  0
  9 13  2  0
 11 14  1  0
 12 15  2  0
 14 16  1  0
 10 11  1  0
 13 15  1  0
M  END
>  <Molecule Name>  (264) 
VDEKFYBSRAMPIS-UHFFFAOYNA-N

>  <hs_clash>  (264) 
11.0

>  <hs_total>  (264) 
nan

>  <Total Molweight>  (264) 
218.299

>  <cLogP>  (264) 
2.1718

>  <H-Acceptors>  (264) 
3

>  <H-Donors>  (264) 
0

>  <Polar Surface Area>  (264) 
23.55

>  <Non-H Atoms>  (264) 
16

>  <sp3-Atoms>  (264) 
7

$$$$
